# File generated by Flopy version 3.3.2 on 01/02/2021 at 15:39:14.
BEGIN options
END options

BEGIN dimensions
  MAXBOUND  1270
END dimensions

BEGIN period  1
  1 79    4546.00000000  3.00000000E-04
  1 80    4547.00000000  3.00000000E-04
  1 82    4571.00000000  3.00000000E-04
  1 96    4537.00000000  3.00000000E-04
  1 174    4566.00000000  3.00000000E-04
  1 197    4352.00000000  3.00000000E-04
  1 198    4358.00000000  3.00000000E-04
  1 216    4541.00000000  3.00000000E-04
  1 217    4541.00000000  3.00000000E-04
  1 234    4347.00000000  3.00000000E-04
  1 315    3997.00000000  3.00000000E-04
  1 322    3998.00000000  3.00000000E-04
  1 325    3887.00000000  3.00000000E-04
  1 330    4033.00000000  3.00000000E-04
  1 333    3974.00000000  3.00000000E-04
  1 334    4016.00000000  3.00000000E-04
  1 383    4357.00000000  3.00000000E-04
  1 395    4463.00000000  3.00000000E-04
  1 407    4543.00000000  3.00000000E-04
  1 418    4500.00000000  3.00000000E-04
  1 429    4489.00000000  3.00000000E-04
  1 431    4499.00000000  3.00000000E-04
  1 435    4517.00000000  3.00000000E-04
  1 436    4510.00000000  3.00000000E-04
  1 438    4526.00000000  3.00000000E-04
  1 441    4553.00000000  3.00000000E-04
  1 443    4485.00000000  3.00000000E-04
  1 444    4494.00000000  3.00000000E-04
  1 457    4563.00000000  3.00000000E-04
  1 475    4358.00000000  3.00000000E-04
  1 490    4073.00000000  3.00000000E-04
  1 501    4319.00000000  3.00000000E-04
  1 516    4571.00000000  3.00000000E-04
  1 532    4340.00000000  3.00000000E-04
  1 581    3824.00000000  3.00000000E-04
  1 582    3878.00000000  3.00000000E-04
  1 588    3434.00000000  3.00000000E-04
  1 596    3491.00000000  3.00000000E-04
  1 598    3518.00000000  3.00000000E-04
  1 599    3466.00000000  3.00000000E-04
  1 600    3477.00000000  3.00000000E-04
  1 602    3547.00000000  3.00000000E-04
  1 604    3702.00000000  3.00000000E-04
  1 606    3832.00000000  3.00000000E-04
  1 640    3545.00000000  3.00000000E-04
  1 645    3578.00000000  3.00000000E-04
  1 664    4075.00000000  3.00000000E-04
  1 666    3987.00000000  3.00000000E-04
  1 670    4004.00000000  3.00000000E-04
  1 675    3768.00000000  3.00000000E-04
  1 676    3750.00000000  3.00000000E-04
  1 677    3867.00000000  3.00000000E-04
  1 678    3880.00000000  3.00000000E-04
  1 689    4034.00000000  3.00000000E-04
  1 692    3943.00000000  3.00000000E-04
  1 693    3975.00000000  3.00000000E-04
  1 694    3950.00000000  3.00000000E-04
  1 701    3915.00000000  3.00000000E-04
  1 702    3960.00000000  3.00000000E-04
  1 710    3888.00000000  3.00000000E-04
  1 712    3898.00000000  3.00000000E-04
  1 713    3913.00000000  3.00000000E-04
  1 714    3946.00000000  3.00000000E-04
  1 716    3912.00000000  3.00000000E-04
  1 717    3918.00000000  3.00000000E-04
  1 718    3921.00000000  3.00000000E-04
  1 719    3903.00000000  3.00000000E-04
  1 720    3848.00000000  3.00000000E-04
  1 721    3862.00000000  3.00000000E-04
  1 722    3860.00000000  3.00000000E-04
  1 724    3879.00000000  3.00000000E-04
  1 730    3969.00000000  3.00000000E-04
  1 731    3967.00000000  3.00000000E-04
  1 732    3988.00000000  3.00000000E-04
  1 733    4008.00000000  3.00000000E-04
  1 737    3922.00000000  3.00000000E-04
  1 738    3946.00000000  3.00000000E-04
  1 739    3984.00000000  3.00000000E-04
  1 740    3924.00000000  3.00000000E-04
  1 741    3854.00000000  3.00000000E-04
  1 763    3859.00000000  3.00000000E-04
  1 769    3870.00000000  3.00000000E-04
  1 772    3901.00000000  3.00000000E-04
  1 783    4001.00000000  3.00000000E-04
  1 792    4067.00000000  3.00000000E-04
  1 802    4035.00000000  3.00000000E-04
  1 814    4270.00000000  3.00000000E-04
  1 830    4201.00000000  3.00000000E-04
  1 833    4219.00000000  3.00000000E-04
  1 880    4384.00000000  3.00000000E-04
  1 881    4372.00000000  3.00000000E-04
  1 885    4475.00000000  3.00000000E-04
  1 895    4467.00000000  3.00000000E-04
  1 897    4466.00000000  3.00000000E-04
  1 906    4493.00000000  3.00000000E-04
  1 908    4494.00000000  3.00000000E-04
  1 912    4497.00000000  3.00000000E-04
  1 916    4500.00000000  3.00000000E-04
  1 928    4474.00000000  3.00000000E-04
  1 949    4505.00000000  3.00000000E-04
  1 952    4498.00000000  3.00000000E-04
  1 953    4497.00000000  3.00000000E-04
  1 954    4510.00000000  3.00000000E-04
  1 958    4344.00000000  3.00000000E-04
  1 959    4341.00000000  3.00000000E-04
  1 960    4340.00000000  3.00000000E-04
  1 961    4341.00000000  3.00000000E-04
  1 968    4333.00000000  3.00000000E-04
  1 969    4312.00000000  3.00000000E-04
  1 970    4328.00000000  3.00000000E-04
  1 971    4338.00000000  3.00000000E-04
  1 972    4083.00000000  3.00000000E-04
  1 982    4039.00000000  3.00000000E-04
  1 983    4073.00000000  3.00000000E-04
  1 984    4048.00000000  3.00000000E-04
  1 990    4076.00000000  3.00000000E-04
  1 991    4084.00000000  3.00000000E-04
  1 1001    4194.00000000  3.00000000E-04
  1 1002    4180.00000000  3.00000000E-04
  1 1008    4583.00000000  3.00000000E-04
  1 1011    4486.00000000  3.00000000E-04
  1 1012    4492.00000000  3.00000000E-04
  1 1016    4489.00000000  3.00000000E-04
  1 1021    4464.00000000  3.00000000E-04
  1 1022    4474.00000000  3.00000000E-04
  1 1023    4553.00000000  3.00000000E-04
  1 1026    4559.00000000  3.00000000E-04
  1 1042    4348.00000000  3.00000000E-04
  1 1043    4294.00000000  3.00000000E-04
  1 1047    4310.00000000  3.00000000E-04
  1 1048    4278.00000000  3.00000000E-04
  1 1080    4346.00000000  3.00000000E-04
  1 1081    4325.00000000  3.00000000E-04
  1 1084    4175.00000000  3.00000000E-04
  1 1085    4140.00000000  3.00000000E-04
  1 1114    3889.00000000  3.00000000E-04
  1 1115    3861.00000000  3.00000000E-04
  1 1118    3930.00000000  3.00000000E-04
  1 1132    3815.00000000  3.00000000E-04
  1 1145    3513.00000000  3.00000000E-04
  1 1147    3537.00000000  3.00000000E-04
  1 1151    3529.00000000  3.00000000E-04
  1 1173    3469.00000000  3.00000000E-04
  1 1174    3463.00000000  3.00000000E-04
  1 1203    3904.00000000  3.00000000E-04
  1 1209    3621.00000000  3.00000000E-04
  1 1218    3702.00000000  3.00000000E-04
  1 1221    3714.00000000  3.00000000E-04
  1 1226    3729.00000000  3.00000000E-04
  1 1228    3643.00000000  3.00000000E-04
  1 1230    3785.00000000  3.00000000E-04
  1 1231    3760.00000000  3.00000000E-04
  1 1233    3837.00000000  3.00000000E-04
  1 1234    3806.00000000  3.00000000E-04
  1 1236    3770.00000000  3.00000000E-04
  1 1237    3781.00000000  3.00000000E-04
  1 1247    3994.00000000  3.00000000E-04
  1 1250    3857.00000000  3.00000000E-04
  1 1256    4050.00000000  3.00000000E-04
  1 1257    3441.00000000  3.00000000E-04
  1 1269    3500.00000000  3.00000000E-04
  1 1272    3806.00000000  3.00000000E-04
  1 1293    3506.00000000  3.00000000E-04
  1 1327    4227.00000000  3.00000000E-04
  1 1328    4247.00000000  3.00000000E-04
  1 1332    4202.00000000  3.00000000E-04
  1 1337    4104.00000000  3.00000000E-04
  1 1340    4188.00000000  3.00000000E-04
  1 1346    4059.00000000  3.00000000E-04
  1 1347    4055.00000000  3.00000000E-04
  1 1350    4022.00000000  3.00000000E-04
  1 1351    4011.00000000  3.00000000E-04
  1 1352    4044.00000000  3.00000000E-04
  1 1353    3986.00000000  3.00000000E-04
  1 1365    4101.00000000  3.00000000E-04
  1 1366    4090.00000000  3.00000000E-04
  1 1392    4013.00000000  3.00000000E-04
  1 1420    4018.00000000  3.00000000E-04
  1 1424    3936.00000000  3.00000000E-04
  1 1426    3934.00000000  3.00000000E-04
  1 1427    3957.00000000  3.00000000E-04
  1 1431    3972.00000000  3.00000000E-04
  1 1432    3974.00000000  3.00000000E-04
  1 1435    3802.00000000  3.00000000E-04
  1 1436    3807.00000000  3.00000000E-04
  1 1438    3847.00000000  3.00000000E-04
  1 1439    3843.00000000  3.00000000E-04
  1 1441    3881.00000000  3.00000000E-04
  1 1444    4036.00000000  3.00000000E-04
  1 1445    3925.00000000  3.00000000E-04
  1 1452    3889.00000000  3.00000000E-04
  1 1461    3810.00000000  3.00000000E-04
  1 1470    3742.00000000  3.00000000E-04
  1 1471    3776.00000000  3.00000000E-04
  1 1472    3756.00000000  3.00000000E-04
  1 1483    3962.00000000  3.00000000E-04
  1 1495    4056.00000000  3.00000000E-04
  1 1496    4093.00000000  3.00000000E-04
  1 1500    3932.00000000  3.00000000E-04
  1 1509    4241.00000000  3.00000000E-04
  1 1510    4181.00000000  3.00000000E-04
  1 1514    3961.00000000  3.00000000E-04
  1 1516    3916.00000000  3.00000000E-04
  1 1518    3913.00000000  3.00000000E-04
  1 1530    4163.00000000  3.00000000E-04
  1 1537    4089.00000000  3.00000000E-04
  1 1538    4130.00000000  3.00000000E-04
  1 1540    3990.00000000  3.00000000E-04
  1 1548    3978.00000000  3.00000000E-04
  1 1556    4100.00000000  3.00000000E-04
  1 1591    3948.00000000  3.00000000E-04
  1 1597    3977.00000000  3.00000000E-04
  1 1598    3982.00000000  3.00000000E-04
  1 1601    4005.00000000  3.00000000E-04
  1 1603    3990.00000000  3.00000000E-04
  1 1605    4021.00000000  3.00000000E-04
  1 1620    4254.00000000  3.00000000E-04
  1 1621    4245.00000000  3.00000000E-04
  1 1641    4339.00000000  3.00000000E-04
  1 1646    4166.00000000  3.00000000E-04
  1 1648    4192.00000000  3.00000000E-04
  1 1649    4148.00000000  3.00000000E-04
  1 1651    4099.00000000  3.00000000E-04
  1 1653    4148.00000000  3.00000000E-04
  1 1654    4119.00000000  3.00000000E-04
  1 1655    4164.00000000  3.00000000E-04
  1 1660    4261.00000000  3.00000000E-04
  1 1667    4264.00000000  3.00000000E-04
  1 1668    4172.00000000  3.00000000E-04
  1 1669    4199.00000000  3.00000000E-04
  1 1679    4160.00000000  3.00000000E-04
  1 1680    4182.00000000  3.00000000E-04
  1 1692    4201.00000000  3.00000000E-04
  1 1698    4254.00000000  3.00000000E-04
  1 1699    4267.00000000  3.00000000E-04
  1 1702    4222.00000000  3.00000000E-04
  1 1705    4173.00000000  3.00000000E-04
  1 1706    4199.00000000  3.00000000E-04
  1 1714    4096.00000000  3.00000000E-04
  1 1726    4076.00000000  3.00000000E-04
  1 1730    4107.00000000  3.00000000E-04
  1 1732    4094.00000000  3.00000000E-04
  1 1733    4048.00000000  3.00000000E-04
  1 1735    4030.00000000  3.00000000E-04
  1 1742    4040.00000000  3.00000000E-04
  1 1743    4044.00000000  3.00000000E-04
  1 1745    4041.00000000  3.00000000E-04
  1 1746    4040.00000000  3.00000000E-04
  1 1755    3990.00000000  3.00000000E-04
  1 1760    4187.00000000  3.00000000E-04
  1 1784    4465.00000000  3.00000000E-04
  1 1785    4467.00000000  3.00000000E-04
  1 1786    4466.00000000  3.00000000E-04
  1 1787    4473.00000000  3.00000000E-04
  1 1790    4457.00000000  3.00000000E-04
  1 1791    4456.00000000  3.00000000E-04
  1 1792    4465.00000000  3.00000000E-04
  1 1795    4374.00000000  3.00000000E-04
  1 1796    4362.00000000  3.00000000E-04
  1 1808    4435.00000000  3.00000000E-04
  1 1810    4473.00000000  3.00000000E-04
  1 1811    4467.00000000  3.00000000E-04
  1 1838    4469.00000000  3.00000000E-04
  1 1843    4490.00000000  3.00000000E-04
  1 1844    4489.00000000  3.00000000E-04
  1 1846    4493.00000000  3.00000000E-04
  1 1847    4490.00000000  3.00000000E-04
  1 1848    4491.00000000  3.00000000E-04
  1 1849    4491.00000000  3.00000000E-04
  1 1850    4497.00000000  3.00000000E-04
  1 1864    4479.00000000  3.00000000E-04
  1 1885    4149.00000000  3.00000000E-04
  1 1890    4161.00000000  3.00000000E-04
  1 1891    4126.00000000  3.00000000E-04
  1 1893    4128.00000000  3.00000000E-04
  1 1894    4111.00000000  3.00000000E-04
  1 1896    4082.00000000  3.00000000E-04
  1 1903    4170.00000000  3.00000000E-04
  1 1905    4215.00000000  3.00000000E-04
  1 1911    4210.00000000  3.00000000E-04
  1 1912    4238.00000000  3.00000000E-04
  1 1914    4308.00000000  3.00000000E-04
  1 1917    4312.00000000  3.00000000E-04
  1 1918    4307.00000000  3.00000000E-04
  1 1919    4294.00000000  3.00000000E-04
  1 1920    4140.00000000  3.00000000E-04
  1 1921    4150.00000000  3.00000000E-04
  1 1923    4168.00000000  3.00000000E-04
  1 1925    4232.00000000  3.00000000E-04
  1 1934    4485.00000000  3.00000000E-04
  1 1937    4489.00000000  3.00000000E-04
  1 1939    4479.00000000  3.00000000E-04
  1 1954    4482.00000000  3.00000000E-04
  1 1956    4482.00000000  3.00000000E-04
  1 1960    4492.00000000  3.00000000E-04
  1 1961    4489.00000000  3.00000000E-04
  1 1964    4026.00000000  3.00000000E-04
  1 1968    4269.00000000  3.00000000E-04
  1 1969    4322.00000000  3.00000000E-04
  1 1981    4299.00000000  3.00000000E-04
  1 1983    4299.00000000  3.00000000E-04
  1 1986    4279.00000000  3.00000000E-04
  1 2015    4256.00000000  3.00000000E-04
  1 2016    4208.00000000  3.00000000E-04
  1 2018    4193.00000000  3.00000000E-04
  1 2020    4228.00000000  3.00000000E-04
  1 2021    4262.00000000  3.00000000E-04
  1 2028    4173.00000000  3.00000000E-04
  1 2029    4175.00000000  3.00000000E-04
  1 2030    4170.00000000  3.00000000E-04
  1 2031    4159.00000000  3.00000000E-04
  1 2037    4139.00000000  3.00000000E-04
  1 2039    4146.00000000  3.00000000E-04
  1 2040    4153.00000000  3.00000000E-04
  1 2041    4131.00000000  3.00000000E-04
  1 2046    4278.00000000  3.00000000E-04
  1 2049    3956.00000000  3.00000000E-04
  1 2051    3916.00000000  3.00000000E-04
  1 2062    3909.00000000  3.00000000E-04
  1 2065    3904.00000000  3.00000000E-04
  1 2082    3838.00000000  3.00000000E-04
  1 2083    3828.00000000  3.00000000E-04
  1 2086    3957.00000000  3.00000000E-04
  1 2093    3963.00000000  3.00000000E-04
  1 2099    3709.00000000  3.00000000E-04
  1 2100    3779.00000000  3.00000000E-04
  1 2115    3789.00000000  3.00000000E-04
  1 2116    3855.00000000  3.00000000E-04
  1 2117    3873.00000000  3.00000000E-04
  1 2119    4307.00000000  3.00000000E-04
  1 2122    4295.00000000  3.00000000E-04
  1 2137    3625.00000000  3.00000000E-04
  1 2140    3557.00000000  3.00000000E-04
  1 2141    3653.00000000  3.00000000E-04
  1 2143    3629.00000000  3.00000000E-04
  1 2153    3671.00000000  3.00000000E-04
  1 2162    3939.00000000  3.00000000E-04
  1 2174    3511.00000000  3.00000000E-04
  1 2175    3562.00000000  3.00000000E-04
  1 2176    3555.00000000  3.00000000E-04
  1 2180    3522.00000000  3.00000000E-04
  1 2190    3614.00000000  3.00000000E-04
  1 2193    3619.00000000  3.00000000E-04
  1 2194    3669.00000000  3.00000000E-04
  1 2208    3552.00000000  3.00000000E-04
  1 2212    3840.00000000  3.00000000E-04
  1 2216    3874.00000000  3.00000000E-04
  1 2245    3648.00000000  3.00000000E-04
  1 2249    3893.00000000  3.00000000E-04
  1 2250    3637.00000000  3.00000000E-04
  1 2251    3676.00000000  3.00000000E-04
  1 2263    3448.00000000  3.00000000E-04
  1 2264    3446.00000000  3.00000000E-04
  1 2267    3455.00000000  3.00000000E-04
  1 2269    3776.00000000  3.00000000E-04
  1 2270    3786.00000000  3.00000000E-04
  1 2271    3802.00000000  3.00000000E-04
  1 2275    3986.00000000  3.00000000E-04
  1 2276    3941.00000000  3.00000000E-04
  1 2277    4010.00000000  3.00000000E-04
  1 2288    3835.00000000  3.00000000E-04
  1 2289    3894.00000000  3.00000000E-04
  1 2295    3748.00000000  3.00000000E-04
  1 2303    3950.00000000  3.00000000E-04
  1 2305    3965.00000000  3.00000000E-04
  1 2331    3722.00000000  3.00000000E-04
  1 2334    3789.00000000  3.00000000E-04
  1 2343    3881.00000000  3.00000000E-04
  1 2347    3700.00000000  3.00000000E-04
  1 2348    3688.00000000  3.00000000E-04
  1 2350    3591.00000000  3.00000000E-04
  1 2355    3626.00000000  3.00000000E-04
  1 2358    3647.00000000  3.00000000E-04
  1 2359    3702.00000000  3.00000000E-04
  1 2360    3690.00000000  3.00000000E-04
  1 2361    3628.00000000  3.00000000E-04
  1 2376    3663.00000000  3.00000000E-04
  1 2378    3690.00000000  3.00000000E-04
  1 2379    3708.00000000  3.00000000E-04
  1 2381    3668.00000000  3.00000000E-04
  1 2394    3537.00000000  3.00000000E-04
  1 2399    4110.00000000  3.00000000E-04
  1 2418    3854.00000000  3.00000000E-04
  1 2420    3870.00000000  3.00000000E-04
  1 2421    3846.00000000  3.00000000E-04
  1 2425    3945.00000000  3.00000000E-04
  1 2431    4022.00000000  3.00000000E-04
  1 2432    3967.00000000  3.00000000E-04
  1 2442    3958.00000000  3.00000000E-04
  1 2456    3725.00000000  3.00000000E-04
  1 2458    3415.00000000  3.00000000E-04
  1 2476    4267.00000000  3.00000000E-04
  1 2482    4198.00000000  3.00000000E-04
  1 2493    4161.00000000  3.00000000E-04
  1 2497    4195.00000000  3.00000000E-04
  1 2503    4266.00000000  3.00000000E-04
  1 2504    4278.00000000  3.00000000E-04
  1 2505    4244.00000000  3.00000000E-04
  1 2513    4217.00000000  3.00000000E-04
  1 2517    4299.00000000  3.00000000E-04
  1 2538    4017.00000000  3.00000000E-04
  1 2544    4203.00000000  3.00000000E-04
  1 2559    3979.00000000  3.00000000E-04
  1 2593    4151.00000000  3.00000000E-04
  1 2596    4102.00000000  3.00000000E-04
  1 2608    3773.00000000  3.00000000E-04
  1 2610    3880.00000000  3.00000000E-04
  1 2611    3830.00000000  3.00000000E-04
  1 2612    3772.00000000  3.00000000E-04
  1 2619    3683.00000000  3.00000000E-04
  1 2629    3746.00000000  3.00000000E-04
  1 2630    3710.00000000  3.00000000E-04
  1 2632    3756.00000000  3.00000000E-04
  1 2633    3725.00000000  3.00000000E-04
  1 2634    3736.00000000  3.00000000E-04
  1 2635    3713.00000000  3.00000000E-04
  1 2637    4004.00000000  3.00000000E-04
  1 2638    3961.00000000  3.00000000E-04
  1 2639    3967.00000000  3.00000000E-04
  1 2640    3946.00000000  3.00000000E-04
  1 2646    3924.00000000  3.00000000E-04
  1 2657    4005.00000000  3.00000000E-04
  1 2662    4022.00000000  3.00000000E-04
  1 2665    3944.00000000  3.00000000E-04
  1 2673    4043.00000000  3.00000000E-04
  1 2675    4014.00000000  3.00000000E-04
  1 2677    4110.00000000  3.00000000E-04
  1 2678    4077.00000000  3.00000000E-04
  1 2681    4111.00000000  3.00000000E-04
  1 2683    4074.00000000  3.00000000E-04
  1 2685    4048.00000000  3.00000000E-04
  1 2687    4042.00000000  3.00000000E-04
  1 2688    3926.00000000  3.00000000E-04
  1 2691    3905.00000000  3.00000000E-04
  1 2692    3917.00000000  3.00000000E-04
  1 2693    3934.00000000  3.00000000E-04
  1 2694    3959.00000000  3.00000000E-04
  1 2697    3911.00000000  3.00000000E-04
  1 2699    3830.00000000  3.00000000E-04
  1 2704    3804.00000000  3.00000000E-04
  1 2707    3850.00000000  3.00000000E-04
  1 2709    3875.00000000  3.00000000E-04
  1 2725    4058.00000000  3.00000000E-04
  1 2727    3922.00000000  3.00000000E-04
  1 2728    3879.00000000  3.00000000E-04
  1 2736    3981.00000000  3.00000000E-04
  1 2740    3853.00000000  3.00000000E-04
  1 2741    3942.00000000  3.00000000E-04
  1 2743    3975.00000000  3.00000000E-04
  1 2744    4048.00000000  3.00000000E-04
  1 2745    4019.00000000  3.00000000E-04
  1 2747    3947.00000000  3.00000000E-04
  1 2748    3915.00000000  3.00000000E-04
  1 2755    3834.00000000  3.00000000E-04
  1 2757    3819.00000000  3.00000000E-04
  1 2759    3809.00000000  3.00000000E-04
  1 2762    3868.00000000  3.00000000E-04
  1 2770    4134.00000000  3.00000000E-04
  1 2771    4154.00000000  3.00000000E-04
  1 2774    3853.00000000  3.00000000E-04
  1 2779    3752.00000000  3.00000000E-04
  1 2785    3729.00000000  3.00000000E-04
  1 2786    3734.00000000  3.00000000E-04
  1 2788    3747.00000000  3.00000000E-04
  1 2790    3731.00000000  3.00000000E-04
  1 2793    3817.00000000  3.00000000E-04
  1 2794    3861.00000000  3.00000000E-04
  1 2798    3778.00000000  3.00000000E-04
  1 2799    3782.00000000  3.00000000E-04
  1 2801    3769.00000000  3.00000000E-04
  1 2802    3786.00000000  3.00000000E-04
  1 2804    3856.00000000  3.00000000E-04
  1 2805    3786.00000000  3.00000000E-04
  1 2807    3783.00000000  3.00000000E-04
  1 2819    3785.00000000  3.00000000E-04
  1 2823    3950.00000000  3.00000000E-04
  1 2827    4095.00000000  3.00000000E-04
  1 2830    3944.00000000  3.00000000E-04
  1 2833    3889.00000000  3.00000000E-04
  1 2835    3873.00000000  3.00000000E-04
  1 2836    3913.00000000  3.00000000E-04
  1 2843    4246.00000000  3.00000000E-04
  1 2848    4192.00000000  3.00000000E-04
  1 2855    4232.00000000  3.00000000E-04
  1 2869    3911.00000000  3.00000000E-04
  1 2870    3936.00000000  3.00000000E-04
  1 2872    3908.00000000  3.00000000E-04
  1 2874    3954.00000000  3.00000000E-04
  1 2890    3993.00000000  3.00000000E-04
  1 2894    4002.00000000  3.00000000E-04
  1 2895    3968.00000000  3.00000000E-04
  1 2899    4028.00000000  3.00000000E-04
  1 2900    4036.00000000  3.00000000E-04
  1 2902    3987.00000000  3.00000000E-04
  1 2903    4065.00000000  3.00000000E-04
  1 2913    4130.00000000  3.00000000E-04
  1 2918    3829.00000000  3.00000000E-04
  1 2926    3869.00000000  3.00000000E-04
  1 2927    3939.00000000  3.00000000E-04
  1 2928    3888.00000000  3.00000000E-04
  1 2941    4093.00000000  3.00000000E-04
  1 2945    4350.00000000  3.00000000E-04
  1 2955    4229.00000000  3.00000000E-04
  1 2958    4331.00000000  3.00000000E-04
  1 2962    4324.00000000  3.00000000E-04
  1 2974    4188.00000000  3.00000000E-04
  1 2976    4209.00000000  3.00000000E-04
  1 2977    4230.00000000  3.00000000E-04
  1 2983    4201.00000000  3.00000000E-04
  1 2985    4209.00000000  3.00000000E-04
  1 2986    4212.00000000  3.00000000E-04
  1 3008    4285.00000000  3.00000000E-04
  1 3014    4191.00000000  3.00000000E-04
  1 3017    4229.00000000  3.00000000E-04
  1 3019    4205.00000000  3.00000000E-04
  1 3031    3994.00000000  3.00000000E-04
  1 3033    4029.00000000  3.00000000E-04
  1 3037    3954.00000000  3.00000000E-04
  1 3045    3995.00000000  3.00000000E-04
  1 3046    4008.00000000  3.00000000E-04
  1 3051    4165.00000000  3.00000000E-04
  1 3052    4173.00000000  3.00000000E-04
  1 3054    4146.00000000  3.00000000E-04
  1 3056    4110.00000000  3.00000000E-04
  1 3057    4097.00000000  3.00000000E-04
  1 3059    4030.00000000  3.00000000E-04
  1 3060    4006.00000000  3.00000000E-04
  1 3062    4052.00000000  3.00000000E-04
  1 3069    4026.00000000  3.00000000E-04
  1 3073    4106.00000000  3.00000000E-04
  1 3074    4090.00000000  3.00000000E-04
  1 3075    4082.00000000  3.00000000E-04
  1 3081    3990.00000000  3.00000000E-04
  1 3083    3984.00000000  3.00000000E-04
  1 3084    3999.00000000  3.00000000E-04
  1 3086    4079.00000000  3.00000000E-04
  1 3087    4085.00000000  3.00000000E-04
  1 3088    4052.00000000  3.00000000E-04
  1 3092    4199.00000000  3.00000000E-04
  1 3094    4179.00000000  3.00000000E-04
  1 3103    4450.00000000  3.00000000E-04
  1 3105    4435.00000000  3.00000000E-04
  1 3110    4388.00000000  3.00000000E-04
  1 3111    4464.00000000  3.00000000E-04
  1 3112    4464.00000000  3.00000000E-04
  1 3143    4416.00000000  3.00000000E-04
  1 3152    4432.00000000  3.00000000E-04
  1 3153    4424.00000000  3.00000000E-04
  1 3172    4493.00000000  3.00000000E-04
  1 3173    4489.00000000  3.00000000E-04
  1 3176    4481.00000000  3.00000000E-04
  1 3178    4484.00000000  3.00000000E-04
  1 3179    4493.00000000  3.00000000E-04
  1 3180    4474.00000000  3.00000000E-04
  1 3182    4525.00000000  3.00000000E-04
  1 3183    4551.00000000  3.00000000E-04
  1 3184    4497.00000000  3.00000000E-04
  1 3191    4557.00000000  3.00000000E-04
  1 3194    4149.00000000  3.00000000E-04
  1 3203    4160.00000000  3.00000000E-04
  1 3205    4184.00000000  3.00000000E-04
  1 3207    4138.00000000  3.00000000E-04
  1 3211    4223.00000000  3.00000000E-04
  1 3217    4215.00000000  3.00000000E-04
  1 3218    4213.00000000  3.00000000E-04
  1 3221    4181.00000000  3.00000000E-04
  1 3222    4192.00000000  3.00000000E-04
  1 3225    4227.00000000  3.00000000E-04
  1 3227    4204.00000000  3.00000000E-04
  1 3228    4272.00000000  3.00000000E-04
  1 3229    4267.00000000  3.00000000E-04
  1 3230    4273.00000000  3.00000000E-04
  1 3232    4155.00000000  3.00000000E-04
  1 3236    4182.00000000  3.00000000E-04
  1 3237    4159.00000000  3.00000000E-04
  1 3239    4173.00000000  3.00000000E-04
  1 3242    4335.00000000  3.00000000E-04
  1 3244    4319.00000000  3.00000000E-04
  1 3254    4025.00000000  3.00000000E-04
  1 3256    4012.00000000  3.00000000E-04
  1 3265    4038.00000000  3.00000000E-04
  1 3266    4019.00000000  3.00000000E-04
  1 3279    4307.00000000  3.00000000E-04
  1 3280    4307.00000000  3.00000000E-04
  1 3295    4321.00000000  3.00000000E-04
  1 3300    4265.00000000  3.00000000E-04
  1 3301    4253.00000000  3.00000000E-04
  1 3302    4254.00000000  3.00000000E-04
  1 3310    4207.00000000  3.00000000E-04
  1 3311    4199.00000000  3.00000000E-04
  1 3312    4191.00000000  3.00000000E-04
  1 3313    4209.00000000  3.00000000E-04
  1 3315    4228.00000000  3.00000000E-04
  1 3316    4243.00000000  3.00000000E-04
  1 3317    4214.00000000  3.00000000E-04
  1 3339    4029.00000000  3.00000000E-04
  1 3344    3965.00000000  3.00000000E-04
  1 3345    4031.00000000  3.00000000E-04
  1 3384    3858.00000000  3.00000000E-04
  1 3385    3911.00000000  3.00000000E-04
  1 3387    3763.00000000  3.00000000E-04
  1 3388    3785.00000000  3.00000000E-04
  1 3389    3772.00000000  3.00000000E-04
  1 3390    3830.00000000  3.00000000E-04
  1 3397    4359.00000000  3.00000000E-04
  1 3398    3966.00000000  3.00000000E-04
  1 3403    3788.00000000  3.00000000E-04
  1 3412    3760.00000000  3.00000000E-04
  1 3413    3735.00000000  3.00000000E-04
  1 3416    3790.00000000  3.00000000E-04
  1 3418    3782.00000000  3.00000000E-04
  1 3419    3610.00000000  3.00000000E-04
  1 3420    3612.00000000  3.00000000E-04
  1 3421    3671.00000000  3.00000000E-04
  1 3424    3767.00000000  3.00000000E-04
  1 3425    3641.00000000  3.00000000E-04
  1 3428    3823.00000000  3.00000000E-04
  1 3429    3645.00000000  3.00000000E-04
  1 3431    3626.00000000  3.00000000E-04
  1 3432    3690.00000000  3.00000000E-04
  1 3441    3827.00000000  3.00000000E-04
  1 3446    3708.00000000  3.00000000E-04
  1 3447    3732.00000000  3.00000000E-04
  1 3448    3760.00000000  3.00000000E-04
  1 3452    4294.00000000  3.00000000E-04
  1 3453    4310.00000000  3.00000000E-04
  1 3462    3465.00000000  3.00000000E-04
  1 3465    3745.00000000  3.00000000E-04
  1 3480    3848.00000000  3.00000000E-04
  1 3483    3542.00000000  3.00000000E-04
  1 3485    3535.00000000  3.00000000E-04
  1 3492    3571.00000000  3.00000000E-04
  1 3497    3540.00000000  3.00000000E-04
  1 3500    3539.00000000  3.00000000E-04
  1 3501    3497.00000000  3.00000000E-04
  1 3502    3509.00000000  3.00000000E-04
  1 3503    3570.00000000  3.00000000E-04
  1 3504    3537.00000000  3.00000000E-04
  1 3505    3538.00000000  3.00000000E-04
  1 3513    3667.00000000  3.00000000E-04
  1 3514    3736.00000000  3.00000000E-04
  1 3515    3711.00000000  3.00000000E-04
  1 3518    3726.00000000  3.00000000E-04
  1 3537    3975.00000000  3.00000000E-04
  1 3540    3997.00000000  3.00000000E-04
  1 3541    3906.00000000  3.00000000E-04
  1 3542    3947.00000000  3.00000000E-04
  1 3544    3860.00000000  3.00000000E-04
  1 3553    3908.00000000  3.00000000E-04
  1 3559    3663.00000000  3.00000000E-04
  1 3560    3613.00000000  3.00000000E-04
  1 3572    3815.00000000  3.00000000E-04
  1 3574    3812.00000000  3.00000000E-04
  1 3587    3978.00000000  3.00000000E-04
  1 3594    3915.00000000  3.00000000E-04
  1 3595    3886.00000000  3.00000000E-04
  1 3604    3933.00000000  3.00000000E-04
  1 3605    3977.00000000  3.00000000E-04
  1 3608    3951.00000000  3.00000000E-04
  1 3629    3432.00000000  3.00000000E-04
  1 3631    3454.00000000  3.00000000E-04
  1 3634    3476.00000000  3.00000000E-04
  1 3635    3453.00000000  3.00000000E-04
  1 3636    3459.00000000  3.00000000E-04
  1 3641    3481.00000000  3.00000000E-04
  1 3642    3526.00000000  3.00000000E-04
  1 3643    3459.00000000  3.00000000E-04
  1 3651    3632.00000000  3.00000000E-04
  1 3659    3541.00000000  3.00000000E-04
  1 3660    3558.00000000  3.00000000E-04
  1 3661    3602.00000000  3.00000000E-04
  1 3668    3496.00000000  3.00000000E-04
  1 3669    3525.00000000  3.00000000E-04
  1 3670    3538.00000000  3.00000000E-04
  1 3671    3556.00000000  3.00000000E-04
  1 3672    3555.00000000  3.00000000E-04
  1 3673    3497.00000000  3.00000000E-04
  1 3675    3519.00000000  3.00000000E-04
  1 3685    3563.00000000  3.00000000E-04
  1 3686    3556.00000000  3.00000000E-04
  1 3691    3751.00000000  3.00000000E-04
  1 3693    3751.00000000  3.00000000E-04
  1 3708    4040.00000000  3.00000000E-04
  1 3716    4145.00000000  3.00000000E-04
  1 3717    3728.00000000  3.00000000E-04
  1 3719    3730.00000000  3.00000000E-04
  1 3721    3720.00000000  3.00000000E-04
  1 3722    3708.00000000  3.00000000E-04
  1 3723    3640.00000000  3.00000000E-04
  1 3725    3677.00000000  3.00000000E-04
  1 3726    3685.00000000  3.00000000E-04
  1 3735    3870.00000000  3.00000000E-04
  1 3740    3777.00000000  3.00000000E-04
  1 3741    3831.00000000  3.00000000E-04
  1 3754    3772.00000000  3.00000000E-04
  1 3755    3417.00000000  3.00000000E-04
  1 3756    3410.00000000  3.00000000E-04
  1 3760    3411.00000000  3.00000000E-04
  1 3763    3413.00000000  3.00000000E-04
  1 3764    3412.00000000  3.00000000E-04
  1 3773    4250.00000000  3.00000000E-04
  1 3786    4172.00000000  3.00000000E-04
  1 3787    4194.00000000  3.00000000E-04
  1 3789    4176.00000000  3.00000000E-04
  1 3790    4130.00000000  3.00000000E-04
  1 3791    4142.00000000  3.00000000E-04
  1 3792    4147.00000000  3.00000000E-04
  1 3795    4118.00000000  3.00000000E-04
  1 3818    4266.00000000  3.00000000E-04
  1 3821    4258.00000000  3.00000000E-04
  1 3822    4245.00000000  3.00000000E-04
  1 3825    4288.00000000  3.00000000E-04
  1 3838    4204.00000000  3.00000000E-04