# File generated by Flopy version 3.3.2 on 11/01/2020 at 08:31:33.
BEGIN options
  READASARRAYS
END options

BEGIN period  1
  recharge
    CONSTANT  4.75646880E-09
END period  1

