# File generated by Flopy version 3.3.2 on 01/02/2021 at 15:39:14.
BEGIN options
  READASARRAYS
END options

BEGIN period  1
  recharge
    CONSTANT  4.75646880E-09
END period  1

