# File generated by Flopy version 3.3.2 on 01/02/2021 at 15:39:12.
BEGIN options
END options

BEGIN dimensions
  NLAY  6
  NCPL  5907
  NVERT  11949
END dimensions

BEGIN griddata
  top
    INTERNAL  FACTOR  1.0
      3474.00000000    3419.00000000    4515.00000000    4508.00000000    4516.00000000    4494.00000000    4708.00000000    4556.00000000    4652.00000000    4577.00000000    4524.00000000    4510.00000000    4659.00000000    4725.00000000    4511.00000000    4589.00000000    4575.00000000    4556.00000000    3421.00000000    3409.00000000
      3409.00000000    4688.00000000    4727.00000000    4639.00000000    4684.00000000    4689.00000000    4668.00000000    4720.00000000    4695.00000000    4788.00000000    4769.00000000    4770.00000000    4463.00000000    4568.00000000    4580.00000000    4504.00000000    4582.00000000    4538.00000000    4626.00000000    4589.00000000
      4516.00000000    4666.00000000    4646.00000000    4810.00000000    4573.00000000    4670.00000000    4535.00000000    4524.00000000    4627.00000000    4638.00000000    4639.00000000    4580.00000000    3938.00000000    4302.00000000    4313.00000000    4364.00000000    4415.00000000    4735.00000000    4721.00000000    4684.00000000
      4739.00000000    4512.00000000    4533.00000000    4526.00000000    4668.00000000    4597.00000000    4644.00000000    4635.00000000    4584.00000000    4603.00000000    4451.00000000    4398.00000000    4531.00000000    4605.00000000    4833.00000000    4807.00000000    4823.00000000    4837.00000000    4546.00000000    4547.00000000
      4553.00000000    4571.00000000    4567.00000000    4617.00000000    4597.00000000    4618.00000000    4605.00000000    4571.00000000    4508.00000000    4511.00000000    4778.00000000    4728.00000000    4698.00000000    4695.00000000    4644.00000000    4537.00000000    4836.00000000    4793.00000000    4747.00000000    4720.00000000
      4785.00000000    4651.00000000    4702.00000000    4492.00000000    4501.00000000    4505.00000000    4487.00000000    4505.00000000    4467.00000000    4412.00000000    4383.00000000    4588.00000000    4578.00000000    4650.00000000    4675.00000000    4581.00000000    4568.00000000    4504.00000000    4509.00000000    4448.00000000
      4512.00000000    4573.00000000    4569.00000000    4764.00000000    4582.00000000    4584.00000000    4488.00000000    4475.00000000    4494.00000000    4597.00000000    4637.00000000    4542.00000000    4532.00000000    4562.00000000    3957.00000000    3896.00000000    3956.00000000    3947.00000000    3973.00000000    3499.00000000
      4045.00000000    4007.00000000    4082.00000000    4124.00000000    4223.00000000    4220.00000000    4145.00000000    4177.00000000    4257.00000000    4287.00000000    4355.00000000    4279.00000000    4345.00000000    4336.00000000    4303.00000000    4467.00000000    4358.00000000    4353.00000000    4368.00000000    4266.00000000
      4265.00000000    4399.00000000    4374.00000000    4348.00000000    4391.00000000    4393.00000000    4447.00000000    4439.00000000    4352.00000000    4290.00000000    4399.00000000    4409.00000000    4579.00000000    4566.00000000    4578.00000000    4669.00000000    4609.00000000    4624.00000000    4615.00000000    4608.00000000
      4530.00000000    4514.00000000    4531.00000000    4386.00000000    4438.00000000    4493.00000000    4424.00000000    4395.00000000    4378.00000000    4368.00000000    4359.00000000    4355.00000000    4366.00000000    4384.00000000    4365.00000000    4547.00000000    4352.00000000    4358.00000000    4351.00000000    4416.00000000
      4411.00000000    4420.00000000    4430.00000000    4473.00000000    4469.00000000    4598.00000000    4493.00000000    4475.00000000    4524.00000000    4554.00000000    4552.00000000    4573.00000000    4635.00000000    4661.00000000    4654.00000000    4541.00000000    4541.00000000    4553.00000000    4548.00000000    4603.00000000
      4723.00000000    4716.00000000    4656.00000000    4573.00000000    4583.00000000    4587.00000000    4592.00000000    4577.00000000    4592.00000000    4590.00000000    4448.00000000    4359.00000000    4346.00000000    4347.00000000    4406.00000000    4373.00000000    4404.00000000    4399.00000000    4365.00000000    4565.00000000
      4590.00000000    4737.00000000    4794.00000000    4657.00000000    4706.00000000    4689.00000000    4759.00000000    4774.00000000    4753.00000000    4606.00000000    4614.00000000    4426.00000000    4327.00000000    4351.00000000    4408.00000000    4385.00000000    4475.00000000    4521.00000000    4547.00000000    4456.00000000
      4533.00000000    4495.00000000    4449.00000000    4675.00000000    4608.00000000    4683.00000000    4653.00000000    4667.00000000    4667.00000000    4719.00000000    4671.00000000    4520.00000000    4445.00000000    3417.00000000    3430.00000000    3490.00000000    3428.00000000    3545.00000000    4079.00000000    4043.00000000
      3817.00000000    3776.00000000    4096.00000000    4114.00000000    4026.00000000    4196.00000000    4198.00000000    4169.00000000    4157.00000000    4102.00000000    3867.00000000    3846.00000000    3696.00000000    3496.00000000    3479.00000000    3425.00000000    3399.00000000    4225.00000000    4264.00000000    4269.00000000
      4270.00000000    4292.00000000    4013.00000000    4065.00000000    4054.00000000    4139.00000000    4204.00000000    4008.00000000    4136.00000000    4001.00000000    4086.00000000    4048.00000000    3972.00000000    4026.00000000    3997.00000000    4234.00000000    4241.00000000    4275.00000000    4275.00000000    4105.00000000
      3973.00000000    3998.00000000    4107.00000000    3945.00000000    3887.00000000    4163.00000000    4151.00000000    4190.00000000    4191.00000000    4033.00000000    4125.00000000    4095.00000000    3974.00000000    4016.00000000    4011.00000000    4136.00000000    4083.00000000    4160.00000000    4195.00000000    4204.00000000
      4209.00000000    4167.00000000    4276.00000000    4290.00000000    4142.00000000    4154.00000000    4091.00000000    4273.00000000    4256.00000000    4318.00000000    4533.00000000    4525.00000000    4487.00000000    4529.00000000    4295.00000000    4311.00000000    4323.00000000    4314.00000000    4251.00000000    4249.00000000
      4302.00000000    4350.00000000    4394.00000000    4186.00000000    4302.00000000    4214.00000000    4756.00000000    4582.00000000    4566.00000000    4625.00000000    4569.00000000    4560.00000000    4570.00000000    4591.00000000    4572.00000000    4550.00000000    4611.00000000    4560.00000000    4594.00000000    4610.00000000
      4506.00000000    4380.00000000    4357.00000000    4404.00000000    4521.00000000    4483.00000000    4471.00000000    4456.00000000    4446.00000000    4434.00000000    4545.00000000    4629.00000000    4568.00000000    4488.00000000    4463.00000000    4466.00000000    4453.00000000    4504.00000000    4515.00000000    4589.00000000
      4470.00000000    4552.00000000    4562.00000000    4548.00000000    4552.00000000    4560.00000000    4543.00000000    4675.00000000    4555.00000000    4588.00000000    4579.00000000    4626.00000000    4708.00000000    4757.00000000    4621.00000000    4534.00000000    4565.00000000    4500.00000000    4499.00000000    4531.00000000
      4511.00000000    4492.00000000    4502.00000000    4575.00000000    4567.00000000    4572.00000000    4620.00000000    4619.00000000    4489.00000000    4497.00000000    4499.00000000    4537.00000000    4517.00000000    4576.00000000    4517.00000000    4510.00000000    4540.00000000    4526.00000000    4532.00000000    4621.00000000
      4553.00000000    4494.00000000    4485.00000000    4494.00000000    4575.00000000    4525.00000000    4560.00000000    4613.00000000    4556.00000000    4537.00000000    4571.00000000    4603.00000000    4513.00000000    4610.00000000    4665.00000000    4654.00000000    4563.00000000    4604.00000000    4583.00000000    4499.00000000
      4559.00000000    4572.00000000    4582.00000000    4564.00000000    4570.00000000    4589.00000000    4578.00000000    4601.00000000    4584.00000000    4611.00000000    4418.00000000    4431.00000000    4449.00000000    4449.00000000    4358.00000000    4382.00000000    4373.00000000    4304.00000000    4191.00000000    4177.00000000
      4159.00000000    4079.00000000    4324.00000000    4280.00000000    4367.00000000    4367.00000000    4239.00000000    4187.00000000    4237.00000000    4073.00000000    4351.00000000    4334.00000000    4261.00000000    4292.00000000    4217.00000000    4251.00000000    4394.00000000    4354.00000000    4412.00000000    4359.00000000
      4319.00000000    4339.00000000    4358.00000000    4400.00000000    4369.00000000    4387.00000000    4400.00000000    4412.00000000    4369.00000000    4718.00000000    4642.00000000    4691.00000000    4776.00000000    4767.00000000    4577.00000000    4571.00000000    4504.00000000    4487.00000000    4490.00000000    4490.00000000
      4609.00000000    4629.00000000    4619.00000000    4601.00000000    4567.00000000    4584.00000000    4620.00000000    4322.00000000    4374.00000000    4388.00000000    4379.00000000    4340.00000000    4348.00000000    4327.00000000    4381.00000000    4370.00000000    4488.00000000    4422.00000000    4350.00000000    4362.00000000
      4354.00000000    4455.00000000    4441.00000000    4482.00000000    4502.00000000    4437.00000000    4401.00000000    4535.00000000    4482.00000000    4484.00000000    4506.00000000    4534.00000000    4732.00000000    4707.00000000    4705.00000000    4760.00000000    4724.00000000    4481.00000000    4434.00000000    4548.00000000
      4431.00000000    4436.00000000    4473.00000000    4377.00000000    4459.00000000    4389.00000000    4068.00000000    4184.00000000    4197.00000000    4256.00000000    4611.00000000    4574.00000000    4598.00000000    4550.00000000    4586.00000000    3907.00000000    4186.00000000    4115.00000000    4129.00000000    4186.00000000
      3824.00000000    3878.00000000    3942.00000000    4339.00000000    3502.00000000    3410.00000000    3600.00000000    3434.00000000    3412.00000000    3468.00000000    3595.00000000    3620.00000000    3483.00000000    3720.00000000    3581.00000000    3491.00000000    3550.00000000    3518.00000000    3466.00000000    3477.00000000
      4011.00000000    3547.00000000    3754.00000000    3702.00000000    3808.00000000    3832.00000000    3795.00000000    3815.00000000    3767.00000000    3735.00000000    3899.00000000    3727.00000000    3775.00000000    3773.00000000    3826.00000000    3717.00000000    3809.00000000    3868.00000000    4075.00000000    4103.00000000
      4054.00000000    4082.00000000    4111.00000000    4142.00000000    3943.00000000    4112.00000000    4045.00000000    3798.00000000    3592.00000000    3694.00000000    3617.00000000    3588.00000000    3418.00000000    3445.00000000    3490.00000000    3474.00000000    3452.00000000    3582.00000000    3574.00000000    3545.00000000
      4021.00000000    3968.00000000    3610.00000000    3620.00000000    3578.00000000    4075.00000000    4068.00000000    4197.00000000    4053.00000000    3976.00000000    3997.00000000    3603.00000000    3597.00000000    3551.00000000    3611.00000000    4218.00000000    4177.00000000    4192.00000000    4400.00000000    4300.00000000
      4252.00000000    4227.00000000    4110.00000000    4075.00000000    4088.00000000    3987.00000000    4022.00000000    4044.00000000    4018.00000000    4004.00000000    4111.00000000    4218.00000000    4173.00000000    4148.00000000    3768.00000000    3750.00000000    3867.00000000    3880.00000000    3951.00000000    3945.00000000
      3947.00000000    3973.00000000    4068.00000000    3986.00000000    4052.00000000    4155.00000000    4147.00000000    4083.00000000    4034.00000000    4039.00000000    4000.00000000    3943.00000000    3975.00000000    3950.00000000    3960.00000000    4012.00000000    4011.00000000    3967.00000000    4003.00000000    4039.00000000
      3915.00000000    3960.00000000    3999.00000000    4066.00000000    4007.00000000    4010.00000000    3954.00000000    3949.00000000    3989.00000000    3888.00000000    3910.00000000    3898.00000000    3913.00000000    3946.00000000    3991.00000000    3912.00000000    3918.00000000    3921.00000000    3903.00000000    3848.00000000
      3862.00000000    3860.00000000    3888.00000000    3879.00000000    3926.00000000    4066.00000000    4045.00000000    4070.00000000    3948.00000000    3969.00000000    3967.00000000    3988.00000000    4008.00000000    4021.00000000    3993.00000000    3961.00000000    3922.00000000    3946.00000000    3984.00000000    3924.00000000
      3854.00000000    4130.00000000    4242.00000000    4232.00000000    3931.00000000    3929.00000000    3940.00000000    3880.00000000    3898.00000000    3854.00000000    3963.00000000    3965.00000000    3969.00000000    4294.00000000    4254.00000000    4286.00000000    4016.00000000    4097.00000000    4025.00000000    3986.00000000
      4060.00000000    3848.00000000    3859.00000000    3969.00000000    3964.00000000    4002.00000000    4040.00000000    3907.00000000    3870.00000000    3884.00000000    3984.00000000    3901.00000000    4081.00000000    4023.00000000    4097.00000000    4071.00000000    4107.00000000    4093.00000000    4056.00000000    4090.00000000
      4169.00000000    4121.00000000    4001.00000000    4068.00000000    4140.00000000    4231.00000000    4216.00000000    4201.00000000    4144.00000000    4064.00000000    4097.00000000    4067.00000000    4054.00000000    4055.00000000    4171.00000000    4195.00000000    4075.00000000    4028.00000000    4214.00000000    4133.00000000
      4064.00000000    4035.00000000    4309.00000000    4321.00000000    4330.00000000    4364.00000000    4292.00000000    4271.00000000    4331.00000000    4400.00000000    4390.00000000    4360.00000000    4349.00000000    4270.00000000    4173.00000000    4121.00000000    4159.00000000    4203.00000000    4184.00000000    4279.00000000
      4202.00000000    4189.00000000    4227.00000000    4222.00000000    4204.00000000    4225.00000000    4246.00000000    4218.00000000    4320.00000000    4201.00000000    4492.00000000    4489.00000000    4219.00000000    4338.00000000    4423.00000000    4378.00000000    4376.00000000    4257.00000000    4061.00000000    4134.00000000
      4057.00000000    4183.00000000    4174.00000000    4136.00000000    4207.00000000    4183.00000000    4110.00000000    4097.00000000    4196.00000000    4167.00000000    4152.00000000    4141.00000000    4625.00000000    4680.00000000    4322.00000000    4380.00000000    4378.00000000    4292.00000000    4276.00000000    4201.00000000
      4183.00000000    4178.00000000    4181.00000000    4163.00000000    4252.00000000    4354.00000000    4233.00000000    4199.00000000    4298.00000000    4165.00000000    4187.00000000    4496.00000000    4486.00000000    4481.00000000    4488.00000000    4496.00000000    4499.00000000    4478.00000000    4381.00000000    4384.00000000
      4372.00000000    4369.00000000    4368.00000000    4509.00000000    4475.00000000    4520.00000000    4407.00000000    4384.00000000    4485.00000000    4469.00000000    4438.00000000    4508.00000000    4548.00000000    4499.00000000    4467.00000000    4466.00000000    4466.00000000    4467.00000000    4483.00000000    4468.00000000
      4482.00000000    4485.00000000    4485.00000000    4496.00000000    4526.00000000    4493.00000000    4493.00000000    4494.00000000    4500.00000000    4494.00000000    4500.00000000    4497.00000000    4492.00000000    4530.00000000    4507.00000000    4500.00000000    4512.00000000    4530.00000000    4581.00000000    4622.00000000
      4608.00000000    4575.00000000    4629.00000000    4611.00000000    4596.00000000    4582.00000000    4488.00000000    4474.00000000    4490.00000000    4506.00000000    4515.00000000    4494.00000000    4500.00000000    4501.00000000    4527.00000000    4510.00000000    4485.00000000    4512.00000000    4510.00000000    4563.00000000
      4521.00000000    4502.00000000    4502.00000000    4536.00000000    4493.00000000    4483.00000000    4536.00000000    4561.00000000    4505.00000000    4558.00000000    4548.00000000    4498.00000000    4497.00000000    4510.00000000    4426.00000000    4430.00000000    4339.00000000    4344.00000000    4341.00000000    4340.00000000
      4341.00000000    4374.00000000    4353.00000000    4329.00000000    4354.00000000    4370.00000000    4388.00000000    4333.00000000    4312.00000000    4328.00000000    4338.00000000    4083.00000000    4126.00000000    4383.00000000    4432.00000000    4388.00000000    4150.00000000    4169.00000000    4055.00000000    4125.00000000
      4102.00000000    4039.00000000    4073.00000000    4048.00000000    4064.00000000    4331.00000000    4292.00000000    4250.00000000    4263.00000000    4076.00000000    4084.00000000    4214.00000000    4292.00000000    4353.00000000    4334.00000000    4322.00000000    4323.00000000    4282.00000000    4279.00000000    4264.00000000
      4194.00000000    4180.00000000    4374.00000000    4587.00000000    4660.00000000    4586.00000000    4663.00000000    4583.00000000    4618.00000000    4500.00000000    4486.00000000    4492.00000000    4486.00000000    4493.00000000    4495.00000000    4489.00000000    4509.00000000    4516.00000000    4519.00000000    4473.00000000
      4464.00000000    4474.00000000    4553.00000000    4555.00000000    4569.00000000    4559.00000000    4581.00000000    4233.00000000    4350.00000000    4240.00000000    4290.00000000    4216.00000000    4244.00000000    4182.00000000    4182.00000000    4266.00000000    4345.00000000    4311.00000000    4267.00000000    4220.00000000
      4362.00000000    4348.00000000    4294.00000000    4360.00000000    4368.00000000    4330.00000000    4310.00000000    4278.00000000    4334.00000000    4338.00000000    4372.00000000    4433.00000000    4486.00000000    4478.00000000    4536.00000000    4506.00000000    4500.00000000    4350.00000000    4395.00000000    4441.00000000
      4421.00000000    4389.00000000    4369.00000000    4424.00000000    4390.00000000    4438.00000000    4459.00000000    4401.00000000    4492.00000000    4474.00000000    4377.00000000    4393.00000000    4236.00000000    4373.00000000    4258.00000000    4407.00000000    4383.00000000    4406.00000000    4374.00000000    4346.00000000
      4325.00000000    4325.00000000    4274.00000000    4175.00000000    4140.00000000    4157.00000000    4211.00000000    4261.00000000    4241.00000000    4234.00000000    4291.00000000    4169.00000000    4221.00000000    4351.00000000    4362.00000000    4353.00000000    4312.00000000    3973.00000000    4332.00000000    4363.00000000
      4579.00000000    4537.00000000    4376.00000000    4365.00000000    4403.00000000    4431.00000000    4031.00000000    3819.00000000    3931.00000000    3857.00000000    3903.00000000    3896.00000000    3937.00000000    3889.00000000    3861.00000000    3928.00000000    3971.00000000    3930.00000000    3994.00000000    3944.00000000
      4130.00000000    4181.00000000    4069.00000000    4144.00000000    4085.00000000    4035.00000000    3868.00000000    3861.00000000    3906.00000000    3934.00000000    3811.00000000    3815.00000000    4041.00000000    3924.00000000    4413.00000000    4439.00000000    4475.00000000    4292.00000000    4186.00000000    4132.00000000
      4230.00000000    4202.00000000    4097.00000000    4123.00000000    3513.00000000    3525.00000000    3537.00000000    3635.00000000    3696.00000000    3628.00000000    3529.00000000    3415.00000000    3415.00000000    3576.00000000    3845.00000000    3959.00000000    3928.00000000    3677.00000000    3632.00000000    3655.00000000
      3680.00000000    3740.00000000    3820.00000000    3551.00000000    3520.00000000    3556.00000000    3541.00000000    3481.00000000    3498.00000000    3555.00000000    3470.00000000    3543.00000000    3469.00000000    3463.00000000    4009.00000000    3591.00000000    3675.00000000    3836.00000000    3827.00000000    3849.00000000
      3767.00000000    3831.00000000    3808.00000000    3823.00000000    3869.00000000    3809.00000000    3780.00000000    3786.00000000    3805.00000000    3827.00000000    3761.00000000    3811.00000000    3797.00000000    3854.00000000    3842.00000000    3683.00000000    3760.00000000    3697.00000000    3934.00000000    3956.00000000
      3908.00000000    3892.00000000    3904.00000000    3698.00000000    3724.00000000    3694.00000000    3728.00000000    3709.00000000    3621.00000000    3784.00000000    3765.00000000    3651.00000000    3704.00000000    3607.00000000    3857.00000000    3682.00000000    3782.00000000    3702.00000000    3787.00000000    3723.00000000
      3714.00000000    3761.00000000    3705.00000000    3753.00000000    3691.00000000    3729.00000000    3775.00000000    3643.00000000    3637.00000000    3785.00000000    3760.00000000    3837.00000000    3837.00000000    3806.00000000    3838.00000000    3770.00000000    3781.00000000    3790.00000000    3891.00000000    4070.00000000
      4019.00000000    3974.00000000    3957.00000000    4045.00000000    4021.00000000    4006.00000000    3994.00000000    4007.00000000    3864.00000000    3857.00000000    4008.00000000    4084.00000000    4064.00000000    4080.00000000    4057.00000000    4050.00000000    3441.00000000    3553.00000000    3425.00000000    3561.00000000
      3512.00000000    3533.00000000    3413.00000000    3471.00000000    3476.00000000    3441.00000000    3731.00000000    3825.00000000    3500.00000000    3735.00000000    3790.00000000    3806.00000000    3728.00000000    3644.00000000    3848.00000000    3818.00000000    3852.00000000    3849.00000000    3836.00000000    3855.00000000
      4036.00000000    4067.00000000    4077.00000000    4013.00000000    4046.00000000    4073.00000000    3866.00000000    3980.00000000    3892.00000000    4037.00000000    4096.00000000    3985.00000000    3506.00000000    3534.00000000    3543.00000000    3598.00000000    3555.00000000    4039.00000000    4125.00000000    4152.00000000
      4110.00000000    4090.00000000    4065.00000000    4024.00000000    4003.00000000    4011.00000000    3956.00000000    3939.00000000    3993.00000000    3923.00000000    3920.00000000    4025.00000000    3927.00000000    4042.00000000    3961.00000000    4107.00000000    4295.00000000    4317.00000000    4342.00000000    4338.00000000
      4355.00000000    4223.00000000    4240.00000000    4191.00000000    4164.00000000    4136.00000000    4227.00000000    4247.00000000    4296.00000000    4285.00000000    4286.00000000    4202.00000000    4267.00000000    4284.00000000    4251.00000000    4255.00000000    4104.00000000    4117.00000000    4262.00000000    4188.00000000
      4292.00000000    4080.00000000    4088.00000000    4113.00000000    4056.00000000    4059.00000000    4055.00000000    4081.00000000    4057.00000000    4022.00000000    4011.00000000    4044.00000000    3986.00000000    4124.00000000    4121.00000000    4078.00000000    4074.00000000    4117.00000000    4165.00000000    4178.00000000
      4167.00000000    4180.00000000    4137.00000000    4125.00000000    4101.00000000    4090.00000000    4195.00000000    4171.00000000    4169.00000000    4060.00000000    3737.00000000    3821.00000000    3878.00000000    3911.00000000    3921.00000000    3883.00000000    3897.00000000    3988.00000000    3924.00000000    3783.00000000
      3948.00000000    4100.00000000    4189.00000000    4195.00000000    4076.00000000    4130.00000000    4187.00000000    4147.00000000    4138.00000000    4066.00000000    3992.00000000    4013.00000000    4114.00000000    4103.00000000    4074.00000000    4084.00000000    4060.00000000    4025.00000000    4018.00000000    4058.00000000
      4028.00000000    4026.00000000    4081.00000000    4051.00000000    4057.00000000    4002.00000000    3975.00000000    4155.00000000    4183.00000000    4190.00000000    4054.00000000    4189.00000000    4099.00000000    4095.00000000    4057.00000000    3991.00000000    3806.00000000    3837.00000000    4076.00000000    4018.00000000
      4039.00000000    4063.00000000    3916.00000000    3936.00000000    3962.00000000    3934.00000000    3957.00000000    3979.00000000    4022.00000000    4013.00000000    3972.00000000    3974.00000000    4039.00000000    4021.00000000    3802.00000000    3807.00000000    3828.00000000    3847.00000000    3843.00000000    3894.00000000
      3881.00000000    3939.00000000    4156.00000000    4036.00000000    3925.00000000    4023.00000000    4040.00000000    4018.00000000    3901.00000000    3897.00000000    3990.00000000    3889.00000000    3896.00000000    3934.00000000    4212.00000000    3936.00000000    3968.00000000    4067.00000000    3971.00000000    3881.00000000
      3810.00000000    3799.00000000    4034.00000000    3887.00000000    3982.00000000    4020.00000000    3876.00000000    3775.00000000    3783.00000000    3742.00000000    3776.00000000    3756.00000000    3959.00000000    3920.00000000    3908.00000000    3908.00000000    3976.00000000    4031.00000000    4046.00000000    3944.00000000
      3998.00000000    3982.00000000    3962.00000000    3945.00000000    3875.00000000    3942.00000000    3893.00000000    3960.00000000    3942.00000000    3949.00000000    4030.00000000    3995.00000000    3977.00000000    4020.00000000    4056.00000000    4093.00000000    3924.00000000    3972.00000000    3955.00000000    3932.00000000
      4340.00000000    4289.00000000    4247.00000000    4260.00000000    4258.00000000    4219.00000000    4264.00000000    4305.00000000    4241.00000000    4181.00000000    4290.00000000    4167.00000000    4228.00000000    3961.00000000    3944.00000000    3916.00000000    3961.00000000    3913.00000000    3940.00000000    3912.00000000
      3923.00000000    3942.00000000    3988.00000000    4111.00000000    4045.00000000    4017.00000000    4200.00000000    4232.00000000    4229.00000000    4163.00000000    4235.00000000    4196.00000000    4136.00000000    4130.00000000    4120.00000000    4103.00000000    4089.00000000    4130.00000000    4163.00000000    3990.00000000
      4017.00000000    3952.00000000    4070.00000000    4058.00000000    4017.00000000    4030.00000000    4060.00000000    3978.00000000    4031.00000000    4105.00000000    4188.00000000    4118.00000000    4124.00000000    4182.00000000    4163.00000000    4100.00000000    4113.00000000    3958.00000000    4069.00000000    4053.00000000
      4067.00000000    4085.00000000    4060.00000000    4143.00000000    4184.00000000    4135.00000000    4216.00000000    4210.00000000    4189.00000000    4213.00000000    4121.00000000    4113.00000000    4050.00000000    4122.00000000    4088.00000000    4142.00000000    4007.00000000    4158.00000000    4167.00000000    4146.00000000
      4173.00000000    4205.00000000    4191.00000000    4183.00000000    4064.00000000    4045.00000000    4019.00000000    4068.00000000    4053.00000000    4110.00000000    3948.00000000    3986.00000000    3994.00000000    3969.00000000    4003.00000000    4034.00000000    3977.00000000    3982.00000000    3985.00000000    3982.00000000
      4005.00000000    4043.00000000    3990.00000000    4062.00000000    4021.00000000    4189.00000000    4203.00000000    4244.00000000    4239.00000000    4133.00000000    4174.00000000    4208.00000000    4089.00000000    4083.00000000    4083.00000000    4181.00000000    4163.00000000    4140.00000000    4131.00000000    4254.00000000
      4245.00000000    4277.00000000    4427.00000000    4388.00000000    4371.00000000    4407.00000000    4455.00000000    4379.00000000    4358.00000000    4413.00000000    4465.00000000    4336.00000000    4369.00000000    4394.00000000    4376.00000000    4376.00000000    4415.00000000    4453.00000000    4420.00000000    4478.00000000
      4339.00000000    4416.00000000    4378.00000000    4435.00000000    4102.00000000    4166.00000000    4128.00000000    4192.00000000    4148.00000000    4197.00000000    4099.00000000    4135.00000000    4148.00000000    4119.00000000    4164.00000000    4334.00000000    4296.00000000    4347.00000000    4317.00000000    4261.00000000
      4228.00000000    4282.00000000    4285.00000000    4305.00000000    4255.00000000    4323.00000000    4264.00000000    4172.00000000    4199.00000000    4342.00000000    4315.00000000    4291.00000000    4204.00000000    4209.00000000    4267.00000000    4279.00000000    4243.00000000    4159.00000000    4160.00000000    4182.00000000
      4395.00000000    4360.00000000    4181.00000000    4239.00000000    4167.00000000    4239.00000000    4290.00000000    4317.00000000    4228.00000000    4160.00000000    4190.00000000    4201.00000000    4246.00000000    4247.00000000    4199.00000000    4257.00000000    4261.00000000    4254.00000000    4267.00000000    4295.00000000
      4257.00000000    4222.00000000    4246.00000000    4238.00000000    4173.00000000    4199.00000000    4261.00000000    4296.00000000    4252.00000000    4262.00000000    4245.00000000    4023.00000000    4067.00000000    4096.00000000    4040.00000000    4035.00000000    4042.00000000    4123.00000000    4126.00000000    4114.00000000