# File generated by Flopy version 3.3.2 on 11/01/2020 at 08:31:34.
BEGIN options
  BUDGET  FILEOUT  Model.cbc
  HEAD  FILEOUT  Model.hds
END options

BEGIN period  1
  SAVE  HEAD  ALL
  SAVE  BUDGET  ALL
END period  1

