# File generated by Flopy version 3.3.2 on 01/02/2021 at 15:39:12.
BEGIN options
  SAVE_FLOWS
END options

BEGIN packages
  DISV6  Model.disv  disv
  NPF6  Model.npf  npf
  IC6  Model.ic  ic
  RCH6  Model.rcha  rcha
  EVT6  Model.evta  evta
  DRN6  Model.drn  drn_0
  OC6  Model.oc  oc
END packages

