# File generated by Flopy version 3.3.2 on 01/02/2021 at 15:39:14.
BEGIN griddata
  strt
    CONSTANT    4837.00000000
END griddata

