# File generated by Flopy version 3.3.2 on 11/01/2020 at 08:31:33.
BEGIN options
END options

BEGIN dimensions
  MAXBOUND  10185
END dimensions

BEGIN period  1
  1 352    3923.00000000  3.00000000E-04
  1 722    3799.00000000  3.00000000E-04
  1 726    3927.00000000  3.00000000E-04
  1 1391    3799.00000000  3.00000000E-04
  1 1680    4437.00000000  3.00000000E-04
  1 1691    4430.00000000  3.00000000E-04
  1 1695    4429.00000000  3.00000000E-04
  1 1697    4432.00000000  3.00000000E-04
  1 1698    4429.00000000  3.00000000E-04
  1 1973    3780.00000000  3.00000000E-04
  1 1976    3780.00000000  3.00000000E-04
  1 2146    4082.00000000  3.00000000E-04
  1 2147    4088.00000000  3.00000000E-04
  1 2151    4093.00000000  3.00000000E-04
  1 2300    3858.00000000  3.00000000E-04
  1 2397    3802.00000000  3.00000000E-04
  1 2399    3803.00000000  3.00000000E-04
  1 2401    3793.00000000  3.00000000E-04
  1 2404    3791.00000000  3.00000000E-04
  1 2407    3793.00000000  3.00000000E-04
  1 2412    3916.00000000  3.00000000E-04
  1 2413    3930.00000000  3.00000000E-04
  1 2428    3832.00000000  3.00000000E-04
  1 2434    3904.00000000  3.00000000E-04
  1 2435    3836.00000000  3.00000000E-04
  1 2526    4073.00000000  3.00000000E-04
  1 2578    4062.00000000  3.00000000E-04
  1 2582    3997.00000000  3.00000000E-04
  1 2667    4061.00000000  3.00000000E-04
  1 2668    4061.00000000  3.00000000E-04
  1 2672    4064.00000000  3.00000000E-04
  1 2693    4061.00000000  3.00000000E-04
  1 2694    4056.00000000  3.00000000E-04
  1 2963    4427.00000000  3.00000000E-04
  1 2968    4431.00000000  3.00000000E-04
  1 2976    4437.00000000  3.00000000E-04
  1 2977    4437.00000000  3.00000000E-04
  1 3162    4018.00000000  3.00000000E-04
  1 3164    4015.00000000  3.00000000E-04
  1 3166    4015.00000000  3.00000000E-04
  1 3174    4035.00000000  3.00000000E-04
  1 3175    4030.00000000  3.00000000E-04
  1 3178    4026.00000000  3.00000000E-04
  1 3221    4018.00000000  3.00000000E-04
  1 3222    4018.00000000  3.00000000E-04
  1 3228    4010.00000000  3.00000000E-04
  1 3229    4024.00000000  3.00000000E-04
  1 3230    4014.00000000  3.00000000E-04
  1 3237    4018.00000000  3.00000000E-04
  1 3238    4014.00000000  3.00000000E-04
  1 3267    3965.00000000  3.00000000E-04
  1 3271    3965.00000000  3.00000000E-04
  1 3311    3748.00000000  3.00000000E-04
  1 3312    3756.00000000  3.00000000E-04
  1 3315    3694.00000000  3.00000000E-04
  1 3403    3837.00000000  3.00000000E-04
  1 3414    3765.00000000  3.00000000E-04
  1 3420    3770.00000000  3.00000000E-04
  1 3423    3792.00000000  3.00000000E-04
  1 3582    4235.00000000  3.00000000E-04
  1 3632    4201.00000000  3.00000000E-04
  1 3633    4190.00000000  3.00000000E-04
  1 3668    3929.00000000  3.00000000E-04
  1 3673    4167.00000000  3.00000000E-04
  1 3679    4177.00000000  3.00000000E-04
  1 3680    4176.00000000  3.00000000E-04
  1 3695    4146.00000000  3.00000000E-04
  1 3719    4080.00000000  3.00000000E-04
  1 3723    4089.00000000  3.00000000E-04
  1 3724    4095.00000000  3.00000000E-04
  1 3727    4091.00000000  3.00000000E-04
  1 3729    4095.00000000  3.00000000E-04
  1 3732    4077.00000000  3.00000000E-04
  1 3744    4093.00000000  3.00000000E-04
  1 3747    4093.00000000  3.00000000E-04
  1 3749    4092.00000000  3.00000000E-04
  1 3772    4119.00000000  3.00000000E-04
  1 3847    3458.00000000  3.00000000E-04
  1 3904    3865.00000000  3.00000000E-04
  1 3905    3858.00000000  3.00000000E-04
  1 3919    3746.00000000  3.00000000E-04
  1 3925    3667.00000000  3.00000000E-04
  1 3927    3662.00000000  3.00000000E-04
  1 3929    3676.00000000  3.00000000E-04
  1 3947    3723.00000000  3.00000000E-04
  1 3978    3929.00000000  3.00000000E-04
  1 3980    3933.00000000  3.00000000E-04
  1 3981    3948.00000000  3.00000000E-04
  1 3983    3949.00000000  3.00000000E-04
  1 3994    3830.00000000  3.00000000E-04
  1 3998    3910.00000000  3.00000000E-04
  1 3999    3915.00000000  3.00000000E-04
  1 4008    3627.00000000  3.00000000E-04
  1 4061    3825.00000000  3.00000000E-04
  1 4062    3826.00000000  3.00000000E-04
  1 4073    3796.00000000  3.00000000E-04
  1 4078    3796.00000000  3.00000000E-04
  1 4096    3808.00000000  3.00000000E-04
  1 4098    3824.00000000  3.00000000E-04
  1 4099    3827.00000000  3.00000000E-04
  1 4106    3802.00000000  3.00000000E-04
  1 4109    3802.00000000  3.00000000E-04
  1 4110    3807.00000000  3.00000000E-04
  1 4111    3805.00000000  3.00000000E-04
  1 4113    3799.00000000  3.00000000E-04
  1 4116    3814.00000000  3.00000000E-04
  1 4119    3814.00000000  3.00000000E-04
  1 4129    3904.00000000  3.00000000E-04
  1 4130    3884.00000000  3.00000000E-04
  1 4131    3885.00000000  3.00000000E-04
  1 4132    3894.00000000  3.00000000E-04
  1 4143    3836.00000000  3.00000000E-04
  1 4267    4061.00000000  3.00000000E-04
  1 4277    4057.00000000  3.00000000E-04
  1 4278    4063.00000000  3.00000000E-04
  1 4367    4064.00000000  3.00000000E-04
  1 4369    4066.00000000  3.00000000E-04
  1 4370    4062.00000000  3.00000000E-04
  1 4371    4064.00000000  3.00000000E-04
  1 4375    4059.00000000  3.00000000E-04
  1 4376    4061.00000000  3.00000000E-04
  1 4385    3996.00000000  3.00000000E-04
  1 4414    3928.00000000  3.00000000E-04
  1 4422    3852.00000000  3.00000000E-04
  1 4445    3734.00000000  3.00000000E-04
  1 4482    3911.00000000  3.00000000E-04
  1 4565    4066.00000000  3.00000000E-04
  1 4568    4063.00000000  3.00000000E-04
  1 4569    4063.00000000  3.00000000E-04
  1 4582    4064.00000000  3.00000000E-04
  1 4589    4065.00000000  3.00000000E-04
  1 4616    4056.00000000  3.00000000E-04
  1 4617    4056.00000000  3.00000000E-04
  1 4631    4139.00000000  3.00000000E-04
  1 4692    3901.00000000  3.00000000E-04
  1 4696    3900.00000000  3.00000000E-04
  1 4720    3911.00000000  3.00000000E-04
  1 4722    3918.00000000  3.00000000E-04
  1 4763    3911.00000000  3.00000000E-04
  1 4765    3907.00000000  3.00000000E-04
  1 4766    4555.00000000  3.00000000E-04
  1 4767    4555.00000000  3.00000000E-04
  1 4798    4478.00000000  3.00000000E-04
  1 4800    4477.00000000  3.00000000E-04
  1 4802    4477.00000000  3.00000000E-04
  1 4803    4475.00000000  3.00000000E-04
  1 4807    4474.00000000  3.00000000E-04
  1 4816    4552.00000000  3.00000000E-04
  1 4817    4549.00000000  3.00000000E-04
  1 4836    4402.00000000  3.00000000E-04
  1 4844    4226.00000000  3.00000000E-04
  1 4900    4159.00000000  3.00000000E-04
  1 4957    4040.00000000  3.00000000E-04
  1 5003    4432.00000000  3.00000000E-04
  1 5008    4429.00000000  3.00000000E-04
  1 5009    4429.00000000  3.00000000E-04
  1 5031    4428.00000000  3.00000000E-04
  1 5032    4427.00000000  3.00000000E-04
  1 5195    4061.00000000  3.00000000E-04
  1 5283    4031.00000000  3.00000000E-04
  1 5285    4027.00000000  3.00000000E-04
  1 5324    3946.00000000  3.00000000E-04
  1 5325    3939.00000000  3.00000000E-04
  1 5328    3956.00000000  3.00000000E-04
  1 5329    3946.00000000  3.00000000E-04
  1 5350    4080.00000000  3.00000000E-04
  1 5351    4087.00000000  3.00000000E-04
  1 5353    4045.00000000  3.00000000E-04
  1 5354    4045.00000000  3.00000000E-04
  1 5372    3792.00000000  3.00000000E-04
  1 5374    3786.00000000  3.00000000E-04
  1 5396    4054.00000000  3.00000000E-04
  1 5399    4008.00000000  3.00000000E-04
  1 5402    4023.00000000  3.00000000E-04
  1 5403    4010.00000000  3.00000000E-04
  1 5409    4025.00000000  3.00000000E-04
  1 5410    4017.00000000  3.00000000E-04
  1 5411    4025.00000000  3.00000000E-04
  1 5418    4041.00000000  3.00000000E-04
  1 5422    4045.00000000  3.00000000E-04
  1 5426    4030.00000000  3.00000000E-04
  1 5453    3750.00000000  3.00000000E-04
  1 5456    3765.00000000  3.00000000E-04
  1 5466    3940.00000000  3.00000000E-04
  1 5467    3940.00000000  3.00000000E-04
  1 5479    3967.00000000  3.00000000E-04
  1 5507    3908.00000000  3.00000000E-04
  1 5515    3895.00000000  3.00000000E-04
  1 5521    3868.00000000  3.00000000E-04
  1 5522    3861.00000000  3.00000000E-04
  1 5526    3820.00000000  3.00000000E-04
  1 5527    3823.00000000  3.00000000E-04
  1 5537    4006.00000000  3.00000000E-04
  1 5601    3924.00000000  3.00000000E-04
  1 5604    3981.00000000  3.00000000E-04
  1 5609    3980.00000000  3.00000000E-04
  1 5610    3969.00000000  3.00000000E-04
  1 5616    3959.00000000  3.00000000E-04
  1 5618    3963.00000000  3.00000000E-04
  1 5688    3689.00000000  3.00000000E-04
  1 5689    3689.00000000  3.00000000E-04
  1 5701    3896.00000000  3.00000000E-04
  1 5730    3582.00000000  3.00000000E-04
  1 5731    3582.00000000  3.00000000E-04
  1 5734    3580.00000000  3.00000000E-04
  1 5736    3569.00000000  3.00000000E-04
  1 5738    3572.00000000  3.00000000E-04
  1 5769    3734.00000000  3.00000000E-04
  1 5776    3750.00000000  3.00000000E-04
  1 5779    3750.00000000  3.00000000E-04
  1 5781    3750.00000000  3.00000000E-04
  1 5782    3750.00000000  3.00000000E-04
  1 5790    3765.00000000  3.00000000E-04
  1 5805    3763.00000000  3.00000000E-04
  1 5810    3831.00000000  3.00000000E-04
  1 5813    3822.00000000  3.00000000E-04
  1 5817    3834.00000000  3.00000000E-04
  1 5876    3841.00000000  3.00000000E-04
  1 5878    3853.00000000  3.00000000E-04
  1 5879    3853.00000000  3.00000000E-04
  1 5906    3759.00000000  3.00000000E-04
  1 5907    3768.00000000  3.00000000E-04
  1 5909    3759.00000000  3.00000000E-04
  1 5910    3759.00000000  3.00000000E-04
  1 5918    3768.00000000  3.00000000E-04
  1 5919    3758.00000000  3.00000000E-04
  1 5920    3748.00000000  3.00000000E-04
  1 5935    3789.00000000  3.00000000E-04
  1 5938    3789.00000000  3.00000000E-04
  1 5941    3784.00000000  3.00000000E-04
  1 5947    3770.00000000  3.00000000E-04
  1 5965    3770.00000000  3.00000000E-04
  1 5982    3754.00000000  3.00000000E-04
  1 5984    3753.00000000  3.00000000E-04
  1 5985    3754.00000000  3.00000000E-04
  1 6016    3675.00000000  3.00000000E-04
  1 6027    3707.00000000  3.00000000E-04
  1 6029    3707.00000000  3.00000000E-04
  1 6053    3434.00000000  3.00000000E-04
  1 6055    3436.00000000  3.00000000E-04
  1 6067    4236.00000000  3.00000000E-04
  1 6096    4362.00000000  3.00000000E-04
  1 6142    4230.00000000  3.00000000E-04
  1 6165    4341.00000000  3.00000000E-04
  1 6170    4341.00000000  3.00000000E-04
  1 6172    4341.00000000  3.00000000E-04
  1 6185    4089.00000000  3.00000000E-04
  1 6186    4089.00000000  3.00000000E-04
  1 6191    4080.00000000  3.00000000E-04
  1 6195    4102.00000000  3.00000000E-04
  1 6197    4096.00000000  3.00000000E-04
  1 6199    4102.00000000  3.00000000E-04
  1 6226    4026.00000000  3.00000000E-04
  1 6235    4024.00000000  3.00000000E-04
  1 6237    4028.00000000  3.00000000E-04
  1 6256    4154.00000000  3.00000000E-04
  1 6262    4178.00000000  3.00000000E-04
  1 6282    3927.00000000  3.00000000E-04
  1 6287    3938.00000000  3.00000000E-04
  1 6292    3934.00000000  3.00000000E-04
  1 6319    4151.00000000  3.00000000E-04
  1 6327    4149.00000000  3.00000000E-04
  1 6362    4176.00000000  3.00000000E-04
  1 6363    4175.00000000  3.00000000E-04
  1 6366    4167.00000000  3.00000000E-04
  1 6374    4155.00000000  3.00000000E-04
  1 6386    4138.00000000  3.00000000E-04
  1 6388    4144.00000000  3.00000000E-04
  1 6390    4136.00000000  3.00000000E-04
  1 6391    4130.00000000  3.00000000E-04
  1 6393    4140.00000000  3.00000000E-04
  1 6396    4130.00000000  3.00000000E-04
  1 6415    3973.00000000  3.00000000E-04
  1 6416    3975.00000000  3.00000000E-04
  1 6437    3942.00000000  3.00000000E-04
  1 6457    4321.00000000  3.00000000E-04
  1 6462    4315.00000000  3.00000000E-04
  1 6464    4317.00000000  3.00000000E-04
  1 6465    4317.00000000  3.00000000E-04
  1 6466    4317.00000000  3.00000000E-04
  1 6478    4077.00000000  3.00000000E-04
  1 6480    4077.00000000  3.00000000E-04
  1 6481    4076.00000000  3.00000000E-04
  1 6484    4080.00000000  3.00000000E-04
  1 6486    4076.00000000  3.00000000E-04
  1 6488    4076.00000000  3.00000000E-04
  1 6493    4076.00000000  3.00000000E-04
  1 6495    4075.00000000  3.00000000E-04
  1 6501    4053.00000000  3.00000000E-04
  1 6513    4049.00000000  3.00000000E-04
  1 6516    4044.00000000  3.00000000E-04
  1 6517    4052.00000000  3.00000000E-04
  1 6521    4049.00000000  3.00000000E-04
  1 6522    4057.00000000  3.00000000E-04
  1 6526    4068.00000000  3.00000000E-04
  1 6533    4068.00000000  3.00000000E-04
  1 6539    4071.00000000  3.00000000E-04
  1 6541    4071.00000000  3.00000000E-04
  1 6545    4093.00000000  3.00000000E-04
  1 6551    4091.00000000  3.00000000E-04
  1 6564    4059.00000000  3.00000000E-04
  1 6565    4060.00000000  3.00000000E-04
  1 6566    4060.00000000  3.00000000E-04
  1 6569    4064.00000000  3.00000000E-04
  1 6575    4116.00000000  3.00000000E-04
  1 6576    4123.00000000  3.00000000E-04
  1 6578    4121.00000000  3.00000000E-04
  1 6594    4116.00000000  3.00000000E-04
  1 6603    4121.00000000  3.00000000E-04
  1 6604    4121.00000000  3.00000000E-04
  1 6648    4177.00000000  3.00000000E-04
  1 6651    4175.00000000  3.00000000E-04
  1 6653    4175.00000000  3.00000000E-04
  1 6691    3542.00000000  3.00000000E-04
  1 6693    3551.00000000  3.00000000E-04
  1 6703    3545.00000000  3.00000000E-04
  1 6714    3551.00000000  3.00000000E-04
  1 6715    3551.00000000  3.00000000E-04
  1 6716    3551.00000000  3.00000000E-04
  1 6728    3446.00000000  3.00000000E-04
  1 6736    3458.00000000  3.00000000E-04
  1 6749    3458.00000000  3.00000000E-04
  1 6788    3679.00000000  3.00000000E-04
  1 6789    3667.00000000  3.00000000E-04
  1 6806    3518.00000000  3.00000000E-04
  1 6813    3512.00000000  3.00000000E-04
  1 6815    3507.00000000  3.00000000E-04
  1 6821    3605.00000000  3.00000000E-04
  1 6823    3580.00000000  3.00000000E-04
  1 6831    3900.00000000  3.00000000E-04
  1 6838    3884.00000000  3.00000000E-04
  1 6840    3884.00000000  3.00000000E-04
  1 6841    3884.00000000  3.00000000E-04
  1 6851    3863.00000000  3.00000000E-04
  1 6856    3860.00000000  3.00000000E-04
  1 6862    3844.00000000  3.00000000E-04
  1 6864    3848.00000000  3.00000000E-04
  1 6876    3740.00000000  3.00000000E-04
  1 6879    3746.00000000  3.00000000E-04
  1 6887    3727.00000000  3.00000000E-04
  1 6892    3805.00000000  3.00000000E-04
  1 6895    3805.00000000  3.00000000E-04
  1 6899    3713.00000000  3.00000000E-04
  1 6901    3708.00000000  3.00000000E-04
  1 6902    3713.00000000  3.00000000E-04
  1 6903    3716.00000000  3.00000000E-04
  1 6920    3933.00000000  3.00000000E-04
  1 6921    3926.00000000  3.00000000E-04
  1 6931    3958.00000000  3.00000000E-04
  1 6935    3967.00000000  3.00000000E-04
  1 6944    3923.00000000  3.00000000E-04
  1 6952    3932.00000000  3.00000000E-04
  1 6955    3928.00000000  3.00000000E-04
  1 6956    3932.00000000  3.00000000E-04
  1 6958    3955.00000000  3.00000000E-04
  1 6967    3966.00000000  3.00000000E-04
  1 6968    3966.00000000  3.00000000E-04
  1 6970    3962.00000000  3.00000000E-04
  1 6972    3951.00000000  3.00000000E-04
  1 6973    3962.00000000  3.00000000E-04
  1 6974    3959.00000000  3.00000000E-04
  1 6977    3951.00000000  3.00000000E-04
  1 6978    3965.00000000  3.00000000E-04
  1 6989    3888.00000000  3.00000000E-04
  1 6990    3889.00000000  3.00000000E-04
  1 6993    3896.00000000  3.00000000E-04
  1 6994    3899.00000000  3.00000000E-04
  1 6996    3892.00000000  3.00000000E-04
  1 6997    3892.00000000  3.00000000E-04
  1 7008    3822.00000000  3.00000000E-04
  1 7009    3843.00000000  3.00000000E-04
  1 7010    3836.00000000  3.00000000E-04
  1 7011    3832.00000000  3.00000000E-04
  1 7019    3908.00000000  3.00000000E-04
  1 7020    3622.00000000  3.00000000E-04
  1 7024    3627.00000000  3.00000000E-04
  1 7045    3624.00000000  3.00000000E-04
  1 7087    3848.00000000  3.00000000E-04
  1 7091    3836.00000000  3.00000000E-04
  1 7097    3850.00000000  3.00000000E-04
  1 7098    3841.00000000  3.00000000E-04
  1 7100    3841.00000000  3.00000000E-04
  1 7104    3825.00000000  3.00000000E-04
  1 7106    3825.00000000  3.00000000E-04
  1 7107    3836.00000000  3.00000000E-04
  1 7108    3871.00000000  3.00000000E-04
  1 7112    3792.00000000  3.00000000E-04
  1 7115    3792.00000000  3.00000000E-04
  1 7116    3792.00000000  3.00000000E-04
  1 7117    3796.00000000  3.00000000E-04
  1 7121    3926.00000000  3.00000000E-04
  1 7125    3922.00000000  3.00000000E-04
  1 7127    3922.00000000  3.00000000E-04
  1 7133    3920.00000000  3.00000000E-04
  1 7135    3920.00000000  3.00000000E-04
  1 7136    3929.00000000  3.00000000E-04
  1 7143    3808.00000000  3.00000000E-04
  1 7144    3800.00000000  3.00000000E-04
  1 7145    3814.00000000  3.00000000E-04
  1 7146    3796.00000000  3.00000000E-04
  1 7147    3814.00000000  3.00000000E-04
  1 7149    3799.00000000  3.00000000E-04
  1 7151    3808.00000000  3.00000000E-04
  1 7152    3808.00000000  3.00000000E-04
  1 7168    3893.00000000  3.00000000E-04
  1 7170    3893.00000000  3.00000000E-04
  1 7171    3893.00000000  3.00000000E-04
  1 7172    3894.00000000  3.00000000E-04
  1 7184    3899.00000000  3.00000000E-04
  1 7188    3904.00000000  3.00000000E-04
  1 7191    3841.00000000  3.00000000E-04
  1 7207    3875.00000000  3.00000000E-04
  1 7208    3885.00000000  3.00000000E-04
  1 7219    4079.00000000  3.00000000E-04
  1 7222    4066.00000000  3.00000000E-04
  1 7223    4086.00000000  3.00000000E-04
  1 7247    4146.00000000  3.00000000E-04
  1 7265    4259.00000000  3.00000000E-04
  1 7290    4136.00000000  3.00000000E-04
  1 7298    4138.00000000  3.00000000E-04
  1 7299    4138.00000000  3.00000000E-04
  1 7303    4135.00000000  3.00000000E-04
  1 7308    4138.00000000  3.00000000E-04
  1 7309    4136.00000000  3.00000000E-04
  1 7311    4142.00000000  3.00000000E-04
  1 7359    4004.00000000  3.00000000E-04
  1 7360    4013.00000000  3.00000000E-04
  1 7364    3979.00000000  3.00000000E-04
  1 7367    3981.00000000  3.00000000E-04
  1 7369    3982.00000000  3.00000000E-04
  1 7374    3986.00000000  3.00000000E-04
  1 7390    4015.00000000  3.00000000E-04
  1 7392    4015.00000000  3.00000000E-04
  1 7394    4022.00000000  3.00000000E-04
  1 7395    4022.00000000  3.00000000E-04
  1 7404    4061.00000000  3.00000000E-04
  1 7406    4067.00000000  3.00000000E-04
  1 7415    4045.00000000  3.00000000E-04
  1 7437    3989.00000000  3.00000000E-04
  1 7439    3989.00000000  3.00000000E-04
  1 7457    4136.00000000  3.00000000E-04
  1 7465    4140.00000000  3.00000000E-04
  1 7524    3979.00000000  3.00000000E-04
  1 7525    3983.00000000  3.00000000E-04
  1 7532    3934.00000000  3.00000000E-04
  1 7542    3849.00000000  3.00000000E-04
  1 7574    3781.00000000  3.00000000E-04
  1 7601    4061.00000000  3.00000000E-04
  1 7602    4061.00000000  3.00000000E-04
  1 7607    4059.00000000  3.00000000E-04
  1 7609    4063.00000000  3.00000000E-04
  1 7613    3780.00000000  3.00000000E-04
  1 7615    3871.00000000  3.00000000E-04
  1 7617    3982.00000000  3.00000000E-04
  1 7638    3859.00000000  3.00000000E-04
  1 7647    3941.00000000  3.00000000E-04
  1 7648    3951.00000000  3.00000000E-04
  1 7649    3952.00000000  3.00000000E-04
  1 7663    3928.00000000  3.00000000E-04
  1 7667    3941.00000000  3.00000000E-04
  1 7671    3994.00000000  3.00000000E-04
  1 7672    3977.00000000  3.00000000E-04
  1 7685    3850.00000000  3.00000000E-04
  1 7686    3853.00000000  3.00000000E-04
  1 7691    3884.00000000  3.00000000E-04
  1 7695    3886.00000000  3.00000000E-04
  1 7733    3739.00000000  3.00000000E-04
  1 7748    3731.00000000  3.00000000E-04
  1 7766    3876.00000000  3.00000000E-04
  1 7810    4064.00000000  3.00000000E-04
  1 7812    4071.00000000  3.00000000E-04
  1 7813    4071.00000000  3.00000000E-04
  1 7814    4061.00000000  3.00000000E-04
  1 7820    3917.00000000  3.00000000E-04
  1 7834    4031.00000000  3.00000000E-04
  1 7869    3945.00000000  3.00000000E-04
  1 7873    3945.00000000  3.00000000E-04
  1 7876    3960.00000000  3.00000000E-04
  1 7878    3948.00000000  3.00000000E-04
  1 7879    3958.00000000  3.00000000E-04
  1 7881    3958.00000000  3.00000000E-04
  1 7899    3922.00000000  3.00000000E-04
  1 7911    3919.00000000  3.00000000E-04
  1 7912    3915.00000000  3.00000000E-04
  1 7915    4032.00000000  3.00000000E-04
  1 7924    4012.00000000  3.00000000E-04
  1 7939    3981.00000000  3.00000000E-04
  1 7940    3990.00000000  3.00000000E-04
  1 7941    3988.00000000  3.00000000E-04
  1 7963    4067.00000000  3.00000000E-04
  1 7965    4062.00000000  3.00000000E-04
  1 7973    4067.00000000  3.00000000E-04
  1 7995    4026.00000000  3.00000000E-04
  1 8001    4026.00000000  3.00000000E-04
  1 8008    4038.00000000  3.00000000E-04
  1 8009    4038.00000000  3.00000000E-04
  1 8024    3973.00000000  3.00000000E-04
  1 8028    3972.00000000  3.00000000E-04
  1 8031    4126.00000000  3.00000000E-04
  1 8032    4132.00000000  3.00000000E-04
  1 8034    4117.00000000  3.00000000E-04
  1 8036    4117.00000000  3.00000000E-04
  1 8058    3901.00000000  3.00000000E-04
  1 8063    3898.00000000  3.00000000E-04
  1 8075    3915.00000000  3.00000000E-04
  1 8076    3915.00000000  3.00000000E-04
  1 8100    3678.00000000  3.00000000E-04
  1 8107    3678.00000000  3.00000000E-04
  1 8155    3903.00000000  3.00000000E-04
  1 8157    3902.00000000  3.00000000E-04
  1 8160    3901.00000000  3.00000000E-04
  1 8224    4023.00000000  3.00000000E-04
  1 8227    4038.00000000  3.00000000E-04
  1 8298    4475.00000000  3.00000000E-04
  1 8305    4477.00000000  3.00000000E-04
  1 8306    4480.00000000  3.00000000E-04
  1 8348    4396.00000000  3.00000000E-04
  1 8349    4396.00000000  3.00000000E-04
  1 8359    4393.00000000  3.00000000E-04
  1 8362    4392.00000000  3.00000000E-04
  1 8368    4393.00000000  3.00000000E-04
  1 8369    4393.00000000  3.00000000E-04
  1 8375    4400.00000000  3.00000000E-04
  1 8444    4171.00000000  3.00000000E-04
  1 8493    4211.00000000  3.00000000E-04
  1 8517    4162.00000000  3.00000000E-04
  1 8569    4226.00000000  3.00000000E-04
  1 8570    4225.00000000  3.00000000E-04
  1 8614    4066.00000000  3.00000000E-04
  1 8621    4040.00000000  3.00000000E-04
  1 8631    3992.00000000  3.00000000E-04
  1 8673    4150.00000000  3.00000000E-04
  1 8683    4415.00000000  3.00000000E-04
  1 8686    4402.00000000  3.00000000E-04
  1 8692    4540.00000000  3.00000000E-04
  1 8703    4439.00000000  3.00000000E-04
  1 8706    4433.00000000  3.00000000E-04
  1 8716    4431.00000000  3.00000000E-04
  1 8718    4433.00000000  3.00000000E-04
  1 8727    4434.00000000  3.00000000E-04
  1 8729    4433.00000000  3.00000000E-04
  1 8731    4434.00000000  3.00000000E-04
  1 8756    4534.00000000  3.00000000E-04
  1 8758    4536.00000000  3.00000000E-04
  1 8760    4501.00000000  3.00000000E-04
  1 8762    4504.00000000  3.00000000E-04
  1 8797    4568.00000000  3.00000000E-04
  1 8798    4561.00000000  3.00000000E-04
  1 8801    4561.00000000  3.00000000E-04
  1 8817    4560.00000000  3.00000000E-04
  1 8818    4557.00000000  3.00000000E-04
  1 8821    4553.00000000  3.00000000E-04
  1 8857    4572.00000000  3.00000000E-04
  1 8859    4567.00000000  3.00000000E-04
  1 8863    4571.00000000  3.00000000E-04
  1 8899    4283.00000000  3.00000000E-04
  1 8931    4052.00000000  3.00000000E-04
  1 8933    4059.00000000  3.00000000E-04
  1 8938    4052.00000000  3.00000000E-04
  1 8940    4041.00000000  3.00000000E-04
  1 8950    4059.00000000  3.00000000E-04
  1 8951    4059.00000000  3.00000000E-04
  1 8954    4058.00000000  3.00000000E-04
  1 8966    3985.00000000  3.00000000E-04
  1 8968    3997.00000000  3.00000000E-04
  1 8969    3991.00000000  3.00000000E-04
  1 8970    3992.00000000  3.00000000E-04
  1 8971    3985.00000000  3.00000000E-04
  1 8975    3985.00000000  3.00000000E-04
  1 9027    4036.00000000  3.00000000E-04
  1 9029    4026.00000000  3.00000000E-04
  1 9030    4031.00000000  3.00000000E-04
  1 9031    4026.00000000  3.00000000E-04
  1 9032    4028.00000000  3.00000000E-04
  1 9072    3864.00000000  3.00000000E-04
  1 9075    3863.00000000  3.00000000E-04
  1 9088    3789.00000000  3.00000000E-04
  1 9089    3785.00000000  3.00000000E-04
  1 9118    4080.00000000  3.00000000E-04
  1 9177    3937.00000000  3.00000000E-04
  1 9191    3890.00000000  3.00000000E-04
  1 9192    3890.00000000  3.00000000E-04
  1 9194    4062.00000000  3.00000000E-04
  1 9196    4071.00000000  3.00000000E-04
  1 9197    4048.00000000  3.00000000E-04
  1 9201    4091.00000000  3.00000000E-04
  1 9203    4087.00000000  3.00000000E-04
  1 9204    4087.00000000  3.00000000E-04
  1 9210    4090.00000000  3.00000000E-04
  1 9223    3817.00000000  3.00000000E-04
  1 9230    3789.00000000  3.00000000E-04
  1 9231    3786.00000000  3.00000000E-04
  1 9239    3793.00000000  3.00000000E-04
  1 9240    3793.00000000  3.00000000E-04
  1 9245    3817.00000000  3.00000000E-04
  1 9250    3771.00000000  3.00000000E-04
  1 9258    3769.00000000  3.00000000E-04
  1 9259    3760.00000000  3.00000000E-04
  1 9261    3760.00000000  3.00000000E-04
  1 9268    3756.00000000  3.00000000E-04
  1 9272    4028.00000000  3.00000000E-04
  1 9274    4033.00000000  3.00000000E-04
  1 9283    4052.00000000  3.00000000E-04
  1 9285    4052.00000000  3.00000000E-04
  1 9287    4053.00000000  3.00000000E-04
  1 9293    4048.00000000  3.00000000E-04
  1 9295    4048.00000000  3.00000000E-04
  1 9305    4008.00000000  3.00000000E-04
  1 9324    3583.00000000  3.00000000E-04
  1 9336    3762.00000000  3.00000000E-04
  1 9338    3764.00000000  3.00000000E-04
  1 9352    3762.00000000  3.00000000E-04
  1 9353    3762.00000000  3.00000000E-04
  1 9355    3756.00000000  3.00000000E-04
  1 9359    3772.00000000  3.00000000E-04
  1 9363    3689.00000000  3.00000000E-04
  1 9364    3727.00000000  3.00000000E-04
  1 9366    3713.00000000  3.00000000E-04
  1 9370    3750.00000000  3.00000000E-04
  1 9374    3751.00000000  3.00000000E-04
  1 9378    3757.00000000  3.00000000E-04
  1 9380    3750.00000000  3.00000000E-04
  1 9381    3743.00000000  3.00000000E-04
  1 9387    3963.00000000  3.00000000E-04
  1 9392    3963.00000000  3.00000000E-04
  1 9393    3953.00000000  3.00000000E-04
  1 9401    3963.00000000  3.00000000E-04
  1 9404    3965.00000000  3.00000000E-04
  1 9405    3971.00000000  3.00000000E-04
  1 9413    3964.00000000  3.00000000E-04
  1 9419    3872.00000000  3.00000000E-04
  1 9420    3872.00000000  3.00000000E-04
  1 9429    3908.00000000  3.00000000E-04
  1 9434    3937.00000000  3.00000000E-04
  1 9440    3816.00000000  3.00000000E-04
  1 9448    3820.00000000  3.00000000E-04
  1 9450    3812.00000000  3.00000000E-04
  1 9454    3809.00000000  3.00000000E-04
  1 9455    3817.00000000  3.00000000E-04
  1 9477    3815.00000000  3.00000000E-04
  1 9488    4017.00000000  3.00000000E-04
  1 9489    4008.00000000  3.00000000E-04
  1 9490    4008.00000000  3.00000000E-04
  1 9534    3921.00000000  3.00000000E-04
  1 9535    3924.00000000  3.00000000E-04
  1 9538    3922.00000000  3.00000000E-04
  1 9541    3938.00000000  3.00000000E-04
  1 9543    3961.00000000  3.00000000E-04
  1 9558    3979.00000000  3.00000000E-04
  1 9559    3979.00000000  3.00000000E-04
  1 9611    3848.00000000  3.00000000E-04
  1 9635    3766.00000000  3.00000000E-04
  1 9653    3892.00000000  3.00000000E-04
  1 9659    3887.00000000  3.00000000E-04
  1 9661    3907.00000000  3.00000000E-04
  1 9662    3907.00000000  3.00000000E-04
  1 9664    3905.00000000  3.00000000E-04
  1 9665    3905.00000000  3.00000000E-04
  1 9666    3906.00000000  3.00000000E-04
  1 9668    3905.00000000  3.00000000E-04
  1 9678    3899.00000000  3.00000000E-04
  1 9679    3906.00000000  3.00000000E-04
  1 9687    3686.00000000  3.00000000E-04
  1 9704    3628.00000000  3.00000000E-04
  1 9712    3742.00000000  3.00000000E-04
  1 9715    3618.00000000  3.00000000E-04
  1 9716    3616.00000000  3.00000000E-04
  1 9719    3618.00000000  3.00000000E-04
  1 9720    3614.00000000  3.00000000E-04
  1 9721    3617.00000000  3.00000000E-04
  1 9724    3736.00000000  3.00000000E-04
  1 9725    3746.00000000  3.00000000E-04
  1 9726    3737.00000000  3.00000000E-04
  1 9730    3571.00000000  3.00000000E-04
  1 9746    3540.00000000  3.00000000E-04
  1 9748    3539.00000000  3.00000000E-04
  1 9765    3789.00000000  3.00000000E-04
  1 9768    3718.00000000  3.00000000E-04
  1 9775    3693.00000000  3.00000000E-04
  1 9776    3749.00000000  3.00000000E-04
  1 9778    3734.00000000  3.00000000E-04
  1 9779    3748.00000000  3.00000000E-04
  1 9780    3763.00000000  3.00000000E-04
  1 9789    3726.00000000  3.00000000E-04
  1 9790    3723.00000000  3.00000000E-04
  1 9815    3764.00000000  3.00000000E-04
  1 9817    3765.00000000  3.00000000E-04
  1 9818    3773.00000000  3.00000000E-04
  1 9820    3769.00000000  3.00000000E-04
  1 9825    3832.00000000  3.00000000E-04
  1 9826    3822.00000000  3.00000000E-04
  1 9827    3834.00000000  3.00000000E-04
  1 9850    3809.00000000  3.00000000E-04