# File generated by Flopy version 3.3.2 on 11/01/2020 at 08:31:33.
BEGIN griddata
  strt
    CONSTANT    4823.00000000
END griddata

