# File generated by Flopy version 3.3.2 on 01/05/2021 at 17:46:38.
BEGIN options
END options

BEGIN timing
  TDIS6  Model.tdis
END timing

BEGIN models
  gwf6  Model.nam  Model
END models

BEGIN exchanges
END exchanges

BEGIN solutiongroup  1
  ims6  Model.ims  Model
END solutiongroup  1

