# File generated by Flopy version 3.3.2 on 01/05/2021 at 22:52:24.
BEGIN options
  READASARRAYS
END options

BEGIN period  1
  recharge
    CONSTANT  4.75646880E-09
END period  1

