# File generated by Flopy version 3.3.2 on 01/05/2021 at 22:52:25.
BEGIN options
  BUDGET  FILEOUT  Model.cbc
  HEAD  FILEOUT  Model.hds
END options

BEGIN period  1
  SAVE  HEAD  ALL
  SAVE  BUDGET  ALL
END period  1

