# File generated by Flopy version 3.3.2 on 01/05/2021 at 17:46:38.
BEGIN options
  PRINT_OPTION  summary
  COMPLEXITY  complex
END options

BEGIN nonlinear
  OUTER_HCLOSE       0.01000000
END nonlinear

BEGIN linear
  INNER_HCLOSE       0.01000000
END linear

