# File generated by Flopy version 3.3.2 on 01/05/2021 at 22:52:25.
BEGIN options
END options

BEGIN dimensions
  MAXBOUND  3876
END dimensions

BEGIN period  1
  1 131    4495.00000000  3.00000000E-04
  1 487    4228.00000000  3.00000000E-04
  1 563    4489.00000000  3.00000000E-04
  1 624    4529.00000000  3.00000000E-04
  1 660    4539.00000000  3.00000000E-04
  1 680    4516.00000000  3.00000000E-04
  1 683    4525.00000000  3.00000000E-04
  1 843    3695.00000000  3.00000000E-04
  1 939    3720.00000000  3.00000000E-04
  1 1007    4261.00000000  3.00000000E-04
  1 1009    4268.00000000  3.00000000E-04
  1 1016    4214.00000000  3.00000000E-04
  1 1021    4211.00000000  3.00000000E-04
  1 1022    4196.00000000  3.00000000E-04
  1 1028    4238.00000000  3.00000000E-04
  1 1029    4226.00000000  3.00000000E-04
  1 1031    4236.00000000  3.00000000E-04
  1 1038    4228.00000000  3.00000000E-04
  1 1094    4150.00000000  3.00000000E-04
  1 1266    4503.00000000  3.00000000E-04
  1 1267    4497.00000000  3.00000000E-04
  1 1294    4563.00000000  3.00000000E-04
  1 1295    4559.00000000  3.00000000E-04
  1 1297    4474.00000000  3.00000000E-04
  1 1299    4476.00000000  3.00000000E-04
  1 1303    4497.00000000  3.00000000E-04
  1 1317    4547.00000000  3.00000000E-04
  1 1318    4540.00000000  3.00000000E-04
  1 1325    4538.00000000  3.00000000E-04
  1 1334    4552.00000000  3.00000000E-04
  1 1336    4540.00000000  3.00000000E-04
  1 1339    4533.00000000  3.00000000E-04
  1 1341    4529.00000000  3.00000000E-04
  1 1342    4532.00000000  3.00000000E-04
  1 1344    4537.00000000  3.00000000E-04
  1 1352    4544.00000000  3.00000000E-04
  1 1358    4560.00000000  3.00000000E-04
  1 1359    4569.00000000  3.00000000E-04
  1 1451    4310.00000000  3.00000000E-04
  1 1453    4302.00000000  3.00000000E-04
  1 1473    4280.00000000  3.00000000E-04
  1 1474    4276.00000000  3.00000000E-04
  1 1478    4279.00000000  3.00000000E-04
  1 1509    3754.00000000  3.00000000E-04
  1 1558    3922.00000000  3.00000000E-04
  1 1568    3926.00000000  3.00000000E-04
  1 1569    3894.00000000  3.00000000E-04
  1 1570    3912.00000000  3.00000000E-04
  1 1580    3910.00000000  3.00000000E-04
  1 1582    3893.00000000  3.00000000E-04
  1 1623    3714.00000000  3.00000000E-04
  1 1625    3722.00000000  3.00000000E-04
  1 1626    3707.00000000  3.00000000E-04
  1 1627    3775.00000000  3.00000000E-04
  1 1628    3764.00000000  3.00000000E-04
  1 1629    3736.00000000  3.00000000E-04
  1 1663    4001.00000000  3.00000000E-04
  1 1764    3547.00000000  3.00000000E-04
  1 1811    3975.00000000  3.00000000E-04
  1 1812    3960.00000000  3.00000000E-04
  1 1814    3990.00000000  3.00000000E-04
  1 1876    4043.00000000  3.00000000E-04
  1 1903    4037.00000000  3.00000000E-04
  1 1923    4115.00000000  3.00000000E-04
  1 1983    3974.00000000  3.00000000E-04
  1 1989    3722.00000000  3.00000000E-04
  1 2062    4061.00000000  3.00000000E-04
  1 2102    4232.00000000  3.00000000E-04
  1 2110    4232.00000000  3.00000000E-04
  1 2136    4279.00000000  3.00000000E-04
  1 2146    4279.00000000  3.00000000E-04
  1 2148    4299.00000000  3.00000000E-04
  1 2149    4307.00000000  3.00000000E-04
  1 2150    4299.00000000  3.00000000E-04
  1 2152    4301.00000000  3.00000000E-04
  1 2169    4183.00000000  3.00000000E-04
  1 2174    4184.00000000  3.00000000E-04
  1 2177    4193.00000000  3.00000000E-04
  1 2183    4218.00000000  3.00000000E-04
  1 2184    4219.00000000  3.00000000E-04
  1 2186    4224.00000000  3.00000000E-04
  1 2269    4220.00000000  3.00000000E-04
  1 2272    4216.00000000  3.00000000E-04
  1 2315    4140.00000000  3.00000000E-04
  1 2349    4094.00000000  3.00000000E-04
  1 2353    4115.00000000  3.00000000E-04
  1 2405    4486.00000000  3.00000000E-04
  1 2407    4483.00000000  3.00000000E-04
  1 2409    4482.00000000  3.00000000E-04
  1 2439    4462.00000000  3.00000000E-04
  1 2453    4461.00000000  3.00000000E-04
  1 2454    4461.00000000  3.00000000E-04
  1 2457    4390.00000000  3.00000000E-04
  1 2472    4400.00000000  3.00000000E-04
  1 2473    4410.00000000  3.00000000E-04
  1 2476    4397.00000000  3.00000000E-04
  1 2481    4399.00000000  3.00000000E-04
  1 2483    4397.00000000  3.00000000E-04
  1 2484    4389.00000000  3.00000000E-04
  1 2485    4393.00000000  3.00000000E-04
  1 2496    4400.00000000  3.00000000E-04
  1 2508    4434.00000000  3.00000000E-04
  1 2509    4423.00000000  3.00000000E-04
  1 2510    4422.00000000  3.00000000E-04
  1 2511    4417.00000000  3.00000000E-04
  1 2529    4511.00000000  3.00000000E-04
  1 2535    4534.00000000  3.00000000E-04
  1 2538    4532.00000000  3.00000000E-04
  1 2551    4494.00000000  3.00000000E-04
  1 2558    4486.00000000  3.00000000E-04
  1 2559    4492.00000000  3.00000000E-04
  1 2560    4492.00000000  3.00000000E-04
  1 2581    4502.00000000  3.00000000E-04
  1 2583    4506.00000000  3.00000000E-04
  1 2585    4504.00000000  3.00000000E-04
  1 2586    4504.00000000  3.00000000E-04
  1 2591    4502.00000000  3.00000000E-04
  1 2592    4496.00000000  3.00000000E-04
  1 2600    4480.00000000  3.00000000E-04
  1 2601    4476.00000000  3.00000000E-04
  1 2621    4473.00000000  3.00000000E-04
  1 2622    4465.00000000  3.00000000E-04
  1 2624    4466.00000000  3.00000000E-04
  1 2625    4461.00000000  3.00000000E-04
  1 2627    4460.00000000  3.00000000E-04
  1 2628    4466.00000000  3.00000000E-04
  1 2664    4516.00000000  3.00000000E-04
  1 2666    4510.00000000  3.00000000E-04
  1 2668    4509.00000000  3.00000000E-04
  1 2691    4554.00000000  3.00000000E-04
  1 2693    4538.00000000  3.00000000E-04
  1 2694    4542.00000000  3.00000000E-04
  1 2696    4568.00000000  3.00000000E-04
  1 2697    4541.00000000  3.00000000E-04
  1 2699    4542.00000000  3.00000000E-04
  1 2702    4551.00000000  3.00000000E-04
  1 2703    4547.00000000  3.00000000E-04
  1 2704    4571.00000000  3.00000000E-04
  1 2705    4579.00000000  3.00000000E-04
  1 2709    4571.00000000  3.00000000E-04
  1 2719    4502.00000000  3.00000000E-04
  1 2729    4285.00000000  3.00000000E-04
  1 2730    4278.00000000  3.00000000E-04
  1 2761    4287.00000000  3.00000000E-04
  1 2762    4278.00000000  3.00000000E-04
  1 2803    4323.00000000  3.00000000E-04
  1 2816    4312.00000000  3.00000000E-04
  1 2919    3768.00000000  3.00000000E-04
  1 2921    3762.00000000  3.00000000E-04
  1 2923    3767.00000000  3.00000000E-04
  1 2927    3793.00000000  3.00000000E-04
  1 2929    3786.00000000  3.00000000E-04
  1 2930    3784.00000000  3.00000000E-04
  1 2959    3503.00000000  3.00000000E-04
  1 2982    3636.00000000  3.00000000E-04
  1 2983    3611.00000000  3.00000000E-04
  1 2984    3627.00000000  3.00000000E-04
  1 2985    3641.00000000  3.00000000E-04
  1 2989    3644.00000000  3.00000000E-04
  1 2990    3652.00000000  3.00000000E-04
  1 2991    3633.00000000  3.00000000E-04
  1 2993    3681.00000000  3.00000000E-04
  1 3034    3933.00000000  3.00000000E-04
  1 3064    3853.00000000  3.00000000E-04
  1 3065    3872.00000000  3.00000000E-04
  1 3068    3871.00000000  3.00000000E-04
  1 3069    3854.00000000  3.00000000E-04
  1 3071    3880.00000000  3.00000000E-04
  1 3074    3894.00000000  3.00000000E-04
  1 3129    3413.00000000  3.00000000E-04
  1 3131    3420.00000000  3.00000000E-04
  1 3132    3420.00000000  3.00000000E-04
  1 3156    3719.00000000  3.00000000E-04
  1 3157    3740.00000000  3.00000000E-04
  1 3201    4013.00000000  3.00000000E-04
  1 3208    4031.00000000  3.00000000E-04
  1 3231    3897.00000000  3.00000000E-04
  1 3232    3925.00000000  3.00000000E-04
  1 3233    3899.00000000  3.00000000E-04
  1 3254    3711.00000000  3.00000000E-04
  1 3266    3567.00000000  3.00000000E-04
  1 3299    3802.00000000  3.00000000E-04
  1 3300    3810.00000000  3.00000000E-04
  1 3304    3774.00000000  3.00000000E-04
  1 3313    3834.00000000  3.00000000E-04
  1 3315    3825.00000000  3.00000000E-04
  1 3316    3833.00000000  3.00000000E-04
  1 3331    3835.00000000  3.00000000E-04
  1 3344    3792.00000000  3.00000000E-04
  1 3345    3786.00000000  3.00000000E-04
  1 3349    3609.00000000  3.00000000E-04
  1 3366    3627.00000000  3.00000000E-04
  1 3371    3650.00000000  3.00000000E-04
  1 3372    3649.00000000  3.00000000E-04
  1 3435    3780.00000000  3.00000000E-04
  1 3446    3864.00000000  3.00000000E-04
  1 3461    3546.00000000  3.00000000E-04
  1 3467    3553.00000000  3.00000000E-04
  1 3481    3804.00000000  3.00000000E-04
  1 3520    4102.00000000  3.00000000E-04
  1 3522    4109.00000000  3.00000000E-04
  1 3523    4090.00000000  3.00000000E-04
  1 3547    4073.00000000  3.00000000E-04
  1 3548    4084.00000000  3.00000000E-04
  1 3573    3951.00000000  3.00000000E-04
  1 3581    3985.00000000  3.00000000E-04
  1 3584    3990.00000000  3.00000000E-04
  1 3588    3985.00000000  3.00000000E-04
  1 3638    4198.00000000  3.00000000E-04
  1 3640    4212.00000000  3.00000000E-04
  1 3648    4149.00000000  3.00000000E-04
  1 3656    4219.00000000  3.00000000E-04
  1 3657    4213.00000000  3.00000000E-04
  1 3671    3902.00000000  3.00000000E-04
  1 3699    4055.00000000  3.00000000E-04
  1 3700    4051.00000000  3.00000000E-04
  1 3717    3921.00000000  3.00000000E-04
  1 3719    3947.00000000  3.00000000E-04
  1 3744    4035.00000000  3.00000000E-04
  1 3746    4026.00000000  3.00000000E-04
  1 3747    4031.00000000  3.00000000E-04
  1 3756    4054.00000000  3.00000000E-04
  1 3757    4057.00000000  3.00000000E-04
  1 3759    4139.00000000  3.00000000E-04
  1 3769    4050.00000000  3.00000000E-04
  1 3771    4060.00000000  3.00000000E-04
  1 3799    4022.00000000  3.00000000E-04
  1 3814    4019.00000000  3.00000000E-04
  1 3815    4027.00000000  3.00000000E-04
  1 3828    4096.00000000  3.00000000E-04
  1 3873    3990.00000000  3.00000000E-04
  1 3874    3991.00000000  3.00000000E-04
  1 3952    3668.00000000  3.00000000E-04
  1 4021    3972.00000000  3.00000000E-04
  1 4027    3970.00000000  3.00000000E-04
  1 4029    3965.00000000  3.00000000E-04
  1 4062    3730.00000000  3.00000000E-04
  1 4063    3730.00000000  3.00000000E-04
  1 4065    3724.00000000  3.00000000E-04
  1 4081    3725.00000000  3.00000000E-04
  1 4082    3730.00000000  3.00000000E-04
  1 4083    3729.00000000  3.00000000E-04
  1 4087    3746.00000000  3.00000000E-04
  1 4108    3639.00000000  3.00000000E-04
  1 4125    3680.00000000  3.00000000E-04
  1 4128    3699.00000000  3.00000000E-04
  1 4130    3721.00000000  3.00000000E-04
  1 4131    3720.00000000  3.00000000E-04
  1 4137    3642.00000000  3.00000000E-04
  1 4140    3639.00000000  3.00000000E-04
  1 4141    3642.00000000  3.00000000E-04
  1 4142    3638.00000000  3.00000000E-04
  1 4144    3639.00000000  3.00000000E-04
  1 4145    3656.00000000  3.00000000E-04
  1 4146    3657.00000000  3.00000000E-04
  1 4149    3657.00000000  3.00000000E-04
  1 4167    4066.00000000  3.00000000E-04
  1 4168    4068.00000000  3.00000000E-04
  1 4173    4056.00000000  3.00000000E-04
  1 4178    4064.00000000  3.00000000E-04
  1 4201    4050.00000000  3.00000000E-04
  1 4202    4037.00000000  3.00000000E-04
  1 4207    4079.00000000  3.00000000E-04
  1 4213    4067.00000000  3.00000000E-04
  1 4217    4105.00000000  3.00000000E-04
  1 4220    4090.00000000  3.00000000E-04
  1 4236    4219.00000000  3.00000000E-04
  1 4237    4209.00000000  3.00000000E-04
  1 4260    4227.00000000  3.00000000E-04
  1 4262    4177.00000000  3.00000000E-04
  1 4263    4166.00000000  3.00000000E-04
  1 4269    4115.00000000  3.00000000E-04
  1 4277    4282.00000000  3.00000000E-04
  1 4278    4273.00000000  3.00000000E-04
  1 4280    4277.00000000  3.00000000E-04
  1 4289    4264.00000000  3.00000000E-04
  1 4290    4271.00000000  3.00000000E-04
  1 4295    4293.00000000  3.00000000E-04
  1 4325    4165.00000000  3.00000000E-04
  1 4328    4179.00000000  3.00000000E-04
  1 4331    4184.00000000  3.00000000E-04
  1 4332    4194.00000000  3.00000000E-04
  1 4352    4193.00000000  3.00000000E-04
  1 4356    4205.00000000  3.00000000E-04
  1 4357    4205.00000000  3.00000000E-04
  1 4359    4196.00000000  3.00000000E-04
  1 4360    4211.00000000  3.00000000E-04
  1 4365    4371.00000000  3.00000000E-04
  1 4367    4375.00000000  3.00000000E-04
  1 4368    4381.00000000  3.00000000E-04
  1 4369    4384.00000000  3.00000000E-04
  1 4370    4373.00000000  3.00000000E-04
  1 4382    4343.00000000  3.00000000E-04
  1 4386    4286.00000000  3.00000000E-04
  1 4388    4280.00000000  3.00000000E-04
  1 4389    4279.00000000  3.00000000E-04
  1 4391    4313.00000000  3.00000000E-04
  1 4402    4151.00000000  3.00000000E-04
  1 4426    4302.00000000  3.00000000E-04
  1 4430    4297.00000000  3.00000000E-04
  1 4444    4287.00000000  3.00000000E-04
  1 4449    4215.00000000  3.00000000E-04
  1 4452    4178.00000000  3.00000000E-04
  1 4453    4174.00000000  3.00000000E-04
  1 4461    4199.00000000  3.00000000E-04
  1 4466    4200.00000000  3.00000000E-04
  1 4468    4202.00000000  3.00000000E-04
  1 4470    4195.00000000  3.00000000E-04
  1 4483    4085.00000000  3.00000000E-04
  1 4487    4149.00000000  3.00000000E-04
  1 4488    4144.00000000  3.00000000E-04
  1 4489    4133.00000000  3.00000000E-04
  1 4502    4125.00000000  3.00000000E-04
  1 4507    4145.00000000  3.00000000E-04
  1 4510    4146.00000000  3.00000000E-04
  1 4554    4196.00000000  3.00000000E-04
  1 4555    4163.00000000  3.00000000E-04
  1 4560    4192.00000000  3.00000000E-04
  1 4569    4184.00000000  3.00000000E-04
  1 4576    4312.00000000  3.00000000E-04
  1 4582    4482.00000000  3.00000000E-04
  1 4583    4481.00000000  3.00000000E-04
  1 4584    4480.00000000  3.00000000E-04
  1 4591    4478.00000000  3.00000000E-04
  1 4592    4481.00000000  3.00000000E-04
  1 4593    4482.00000000  3.00000000E-04
  1 4596    4478.00000000  3.00000000E-04
  1 4597    4480.00000000  3.00000000E-04
  1 4598    4480.00000000  3.00000000E-04
  1 4600    4479.00000000  3.00000000E-04
  1 4601    4481.00000000  3.00000000E-04
  1 4614    4480.00000000  3.00000000E-04
  1 4634    4428.00000000  3.00000000E-04
  1 4644    4467.00000000  3.00000000E-04
  1 4645    4469.00000000  3.00000000E-04
  1 4647    4464.00000000  3.00000000E-04
  1 4648    4473.00000000  3.00000000E-04
  1 4649    4466.00000000  3.00000000E-04
  1 4650    4456.00000000  3.00000000E-04
  1 4659    4461.00000000  3.00000000E-04
  1 4663    4461.00000000  3.00000000E-04
  1 4689    4391.00000000  3.00000000E-04
  1 4690    4385.00000000  3.00000000E-04
  1 4708    4393.00000000  3.00000000E-04
  1 4710    4398.00000000  3.00000000E-04
  1 4716    4388.00000000  3.00000000E-04
  1 4729    4429.00000000  3.00000000E-04
  1 4731    4435.00000000  3.00000000E-04
  1 4733    4416.00000000  3.00000000E-04
  1 4740    4422.00000000  3.00000000E-04
  1 4741    4383.00000000  3.00000000E-04
  1 4748    4380.00000000  3.00000000E-04
  1 4752    4389.00000000  3.00000000E-04
  1 4754    4390.00000000  3.00000000E-04
  1 4756    4380.00000000  3.00000000E-04
  1 4773    4493.00000000  3.00000000E-04
  1 4777    4489.00000000  3.00000000E-04
  1 4779    4491.00000000  3.00000000E-04
  1 4793    4526.00000000  3.00000000E-04
  1 4795    4526.00000000  3.00000000E-04
  1 4797    4518.00000000  3.00000000E-04
  1 4798    4523.00000000  3.00000000E-04
  1 4810    4510.00000000  3.00000000E-04
  1 4814    4518.00000000  3.00000000E-04
  1 4816    4507.00000000  3.00000000E-04
  1 4817    4513.00000000  3.00000000E-04
  1 4825    4505.00000000  3.00000000E-04
  1 4830    4496.00000000  3.00000000E-04
  1 4832    4499.00000000  3.00000000E-04
  1 4833    4498.00000000  3.00000000E-04
  1 4835    4499.00000000  3.00000000E-04
  1 4840    4499.00000000  3.00000000E-04
  1 4847    4500.00000000  3.00000000E-04
  1 4848    4502.00000000  3.00000000E-04
  1 4849    4495.00000000  3.00000000E-04
  1 4857    4463.00000000  3.00000000E-04
  1 4858    4462.00000000  3.00000000E-04
  1 4860    4462.00000000  3.00000000E-04
  1 4879    4465.00000000  3.00000000E-04
  1 4880    4465.00000000  3.00000000E-04
  1 4881    4474.00000000  3.00000000E-04
  1 4882    4482.00000000  3.00000000E-04
  1 4904    4479.00000000  3.00000000E-04
  1 4907    4480.00000000  3.00000000E-04
  1 4908    4480.00000000  3.00000000E-04
  1 4918    4472.00000000  3.00000000E-04
  1 4933    4572.00000000  3.00000000E-04
  1 4938    4571.00000000  3.00000000E-04
  1 4955    4481.00000000  3.00000000E-04
  1 4956    4478.00000000  3.00000000E-04
  1 4961    4479.00000000  3.00000000E-04
  1 4962    4476.00000000  3.00000000E-04
  1 4964    4475.00000000  3.00000000E-04
  1 4965    4472.00000000  3.00000000E-04
  1 4971    4480.00000000  3.00000000E-04
  1 4976    4485.00000000  3.00000000E-04
  1 4978    4492.00000000  3.00000000E-04
  1 4984    4555.00000000  3.00000000E-04
  1 4985    4555.00000000  3.00000000E-04
  1 4988    4552.00000000  3.00000000E-04
  1 5007    4340.00000000  3.00000000E-04
  1 5008    4330.00000000  3.00000000E-04
  1 5035    4287.00000000  3.00000000E-04
  1 5048    4295.00000000  3.00000000E-04
  1 5117    4331.00000000  3.00000000E-04
  1 5119    4337.00000000  3.00000000E-04
  1 5120    4324.00000000  3.00000000E-04
  1 5124    4321.00000000  3.00000000E-04
  1 5127    4321.00000000  3.00000000E-04
  1 5129    4317.00000000  3.00000000E-04
  1 5131    4312.00000000  3.00000000E-04
  1 5137    4296.00000000  3.00000000E-04
  1 5138    4289.00000000  3.00000000E-04
  1 5139    4294.00000000  3.00000000E-04
  1 5166    4339.00000000  3.00000000E-04
  1 5167    4335.00000000  3.00000000E-04
  1 5169    4304.00000000  3.00000000E-04
  1 5175    4290.00000000  3.00000000E-04
  1 5180    4259.00000000  3.00000000E-04
  1 5182    4262.00000000  3.00000000E-04
  1 5186    3936.00000000  3.00000000E-04
  1 5214    3606.00000000  3.00000000E-04
  1 5251    3788.00000000  3.00000000E-04
  1 5252    3810.00000000  3.00000000E-04
  1 5265    3771.00000000  3.00000000E-04
  1 5266    3774.00000000  3.00000000E-04
  1 5267    3776.00000000  3.00000000E-04
  1 5268    3772.00000000  3.00000000E-04
  1 5269    3784.00000000  3.00000000E-04
  1 5270    3779.00000000  3.00000000E-04
  1 5289    3748.00000000  3.00000000E-04
  1 5293    3745.00000000  3.00000000E-04
  1 5294    3747.00000000  3.00000000E-04
  1 5295    3747.00000000  3.00000000E-04
  1 5348    3521.00000000  3.00000000E-04
  1 5350    3530.00000000  3.00000000E-04
  1 5358    3821.00000000  3.00000000E-04
  1 5377    3724.00000000  3.00000000E-04
  1 5378    3744.00000000  3.00000000E-04
  1 5383    3427.00000000  3.00000000E-04
  1 5417    3597.00000000  3.00000000E-04
  1 5418    3628.00000000  3.00000000E-04
  1 5433    3965.00000000  3.00000000E-04
  1 5434    3965.00000000  3.00000000E-04
  1 5435    3972.00000000  3.00000000E-04
  1 5448    3958.00000000  3.00000000E-04
  1 5464    3922.00000000  3.00000000E-04
  1 5465    3921.00000000  3.00000000E-04
  1 5467    3934.00000000  3.00000000E-04
  1 5473    3932.00000000  3.00000000E-04
  1 5481    3930.00000000  3.00000000E-04
  1 5485    3880.00000000  3.00000000E-04
  1 5498    4042.00000000  3.00000000E-04
  1 5500    4044.00000000  3.00000000E-04
  1 5520    3826.00000000  3.00000000E-04
  1 5521    3814.00000000  3.00000000E-04
  1 5527    3893.00000000  3.00000000E-04
  1 5536    3815.00000000  3.00000000E-04
  1 5537    3811.00000000  3.00000000E-04
  1 5538    3820.00000000  3.00000000E-04
  1 5565    3418.00000000  3.00000000E-04
  1 5566    3416.00000000  3.00000000E-04
  1 5571    3409.00000000  3.00000000E-04
  1 5577    3410.00000000  3.00000000E-04
  1 5578    3411.00000000  3.00000000E-04
  1 5581    3413.00000000  3.00000000E-04
  1 5619    4005.00000000  3.00000000E-04
  1 5632    3880.00000000  3.00000000E-04
  1 5644    3947.00000000  3.00000000E-04
  1 5645    3949.00000000  3.00000000E-04
  1 5658    3901.00000000  3.00000000E-04
  1 5659    3893.00000000  3.00000000E-04
  1 5660    3895.00000000  3.00000000E-04
  1 5662    3879.00000000  3.00000000E-04
  1 5666    3845.00000000  3.00000000E-04
  1 5667    3848.00000000  3.00000000E-04
  1 5686    3691.00000000  3.00000000E-04
  1 5689    3677.00000000  3.00000000E-04
  1 5690    3695.00000000  3.00000000E-04
  1 5702    3543.00000000  3.00000000E-04
  1 5704    3547.00000000  3.00000000E-04
  1 5728    3892.00000000  3.00000000E-04
  1 5748    3651.00000000  3.00000000E-04
  1 5751    3706.00000000  3.00000000E-04
  1 5761    3860.00000000  3.00000000E-04
  1 5763    3851.00000000  3.00000000E-04
  1 5766    3870.00000000  3.00000000E-04
  1 5767    3878.00000000  3.00000000E-04
  1 5769    3840.00000000  3.00000000E-04
  1 5770    3823.00000000  3.00000000E-04
  1 5773    3842.00000000  3.00000000E-04
  1 5783    3895.00000000  3.00000000E-04
  1 5784    3904.00000000  3.00000000E-04
  1 5787    3809.00000000  3.00000000E-04
  1 5791    3775.00000000  3.00000000E-04
  1 5801    3740.00000000  3.00000000E-04
  1 5802    3749.00000000  3.00000000E-04
  1 5803    3756.00000000  3.00000000E-04
  1 5817    3732.00000000  3.00000000E-04
  1 5818    3728.00000000  3.00000000E-04
  1 5831    3616.00000000  3.00000000E-04
  1 5841    3650.00000000  3.00000000E-04
  1 5850    3635.00000000  3.00000000E-04
  1 5854    3641.00000000  3.00000000E-04
  1 5856    3661.00000000  3.00000000E-04
  1 5857    3650.00000000  3.00000000E-04
  1 5858    3690.00000000  3.00000000E-04
  1 5862    3652.00000000  3.00000000E-04
  1 5879    3516.00000000  3.00000000E-04
  1 5884    3501.00000000  3.00000000E-04
  1 5900    3799.00000000  3.00000000E-04
  1 5921    3778.00000000  3.00000000E-04
  1 5923    3700.00000000  3.00000000E-04
  1 5924    3693.00000000  3.00000000E-04
  1 5955    3866.00000000  3.00000000E-04
  1 5962    3966.00000000  3.00000000E-04
  1 5972    3546.00000000  3.00000000E-04
  1 5973    3550.00000000  3.00000000E-04
  1 5982    3842.00000000  3.00000000E-04
  1 5983    3823.00000000  3.00000000E-04
  1 6028    3915.00000000  3.00000000E-04
  1 6035    4114.00000000  3.00000000E-04
  1 6037    4126.00000000  3.00000000E-04
  1 6067    4009.00000000  3.00000000E-04
  1 6069    4061.00000000  3.00000000E-04
  1 6070    4061.00000000  3.00000000E-04
  1 6071    4045.00000000  3.00000000E-04
  1 6074    4079.00000000  3.00000000E-04
  1 6099    3882.00000000  3.00000000E-04
  1 6102    3849.00000000  3.00000000E-04
  1 6110    3985.00000000  3.00000000E-04
  1 6111    3994.00000000  3.00000000E-04
  1 6112    4001.00000000  3.00000000E-04
  1 6114    3994.00000000  3.00000000E-04
  1 6117    3976.00000000  3.00000000E-04
  1 6121    3969.00000000  3.00000000E-04
  1 6124    3946.00000000  3.00000000E-04
  1 6126    3894.00000000  3.00000000E-04
  1 6127    3886.00000000  3.00000000E-04
  1 6133    3988.00000000  3.00000000E-04
  1 6134    4009.00000000  3.00000000E-04
  1 6157    4012.00000000  3.00000000E-04
  1 6158    4020.00000000  3.00000000E-04
  1 6161    4013.00000000  3.00000000E-04
  1 6189    3962.00000000  3.00000000E-04
  1 6199    3987.00000000  3.00000000E-04
  1 6200    3980.00000000  3.00000000E-04
  1 6201    3989.00000000  3.00000000E-04
  1 6202    3986.00000000  3.00000000E-04
  1 6211    3897.00000000  3.00000000E-04
  1 6227    4290.00000000  3.00000000E-04
  1 6243    4047.00000000  3.00000000E-04
  1 6262    4282.00000000  3.00000000E-04
  1 6270    4245.00000000  3.00000000E-04
  1 6273    4251.00000000  3.00000000E-04
  1 6278    4316.00000000  3.00000000E-04
  1 6292    4258.00000000  3.00000000E-04
  1 6293    4256.00000000  3.00000000E-04
  1 6327    4160.00000000  3.00000000E-04
  1 6345    4267.00000000  3.00000000E-04
  1 6347    4279.00000000  3.00000000E-04
  1 6348    4138.00000000  3.00000000E-04
  1 6351    4148.00000000  3.00000000E-04
  1 6356    4222.00000000  3.00000000E-04
  1 6359    4222.00000000  3.00000000E-04
  1 6360    4221.00000000  3.00000000E-04
  1 6361    4228.00000000  3.00000000E-04
  1 6387    3940.00000000  3.00000000E-04
  1 6406    3876.00000000  3.00000000E-04
  1 6409    3866.00000000  3.00000000E-04
  1 6433    4028.00000000  3.00000000E-04
  1 6475    4074.00000000  3.00000000E-04
  1 6478    4065.00000000  3.00000000E-04
  1 6479    4081.00000000  3.00000000E-04
  1 6487    4032.00000000  3.00000000E-04
  1 6488    4048.00000000  3.00000000E-04
  1 6495    4026.00000000  3.00000000E-04
  1 6498    4030.00000000  3.00000000E-04
  1 6499    4030.00000000  3.00000000E-04
  1 6503    4019.00000000  3.00000000E-04
  1 6504    3991.00000000  3.00000000E-04
  1 6524    4017.00000000  3.00000000E-04
  1 6530    4018.00000000  3.00000000E-04
  1 6543    4044.00000000  3.00000000E-04
  1 6550    4045.00000000  3.00000000E-04
  1 6561    4042.00000000  3.00000000E-04
  1 6566    3974.00000000  3.00000000E-04
  1 6567    3990.00000000  3.00000000E-04
  1 6577    4054.00000000  3.00000000E-04
  1 6581    4050.00000000  3.00000000E-04
  1 6583    4102.00000000  3.00000000E-04
  1 6584    4126.00000000  3.00000000E-04
  1 6585    4097.00000000  3.00000000E-04
  1 6593    4052.00000000  3.00000000E-04
  1 6595    4053.00000000  3.00000000E-04
  1 6596    4065.00000000  3.00000000E-04
  1 6597    4051.00000000  3.00000000E-04
  1 6599    4073.00000000  3.00000000E-04
  1 6609    4041.00000000  3.00000000E-04
  1 6613    4039.00000000  3.00000000E-04
  1 6617    4039.00000000  3.00000000E-04
  1 6618    4040.00000000  3.00000000E-04
  1 6620    4043.00000000  3.00000000E-04
  1 6624    4014.00000000  3.00000000E-04
  1 6630    4026.00000000  3.00000000E-04
  1 6631    4016.00000000  3.00000000E-04
  1 6637    4016.00000000  3.00000000E-04
  1 6640    4034.00000000  3.00000000E-04
  1 6641    4004.00000000  3.00000000E-04
  1 6642    4015.00000000  3.00000000E-04
  1 6659    4025.00000000  3.00000000E-04
  1 6664    4023.00000000  3.00000000E-04
  1 6680    4031.00000000  3.00000000E-04
  1 6681    4095.00000000  3.00000000E-04
  1 6682    4093.00000000  3.00000000E-04
  1 6684    4099.00000000  3.00000000E-04
  1 6690    4097.00000000  3.00000000E-04
  1 6702    4007.00000000  3.00000000E-04
  1 6716    4060.00000000  3.00000000E-04
  1 6735    3992.00000000  3.00000000E-04
  1 6736    3998.00000000  3.00000000E-04
  1 6744    3987.00000000  3.00000000E-04
  1 6746    3880.00000000  3.00000000E-04
  1 6757    3947.00000000  3.00000000E-04
  1 6760    4064.00000000  3.00000000E-04
  1 6775    4073.00000000  3.00000000E-04
  1 6776    4069.00000000  3.00000000E-04
  1 6779    4061.00000000  3.00000000E-04
  1 6780    4063.00000000  3.00000000E-04
  1 6821    3662.00000000  3.00000000E-04
  1 6825    3673.00000000  3.00000000E-04
  1 6826    3668.00000000  3.00000000E-04
  1 6827    3671.00000000  3.00000000E-04
  1 6843    3635.00000000  3.00000000E-04
  1 6844    3655.00000000  3.00000000E-04
  1 6845    3645.00000000  3.00000000E-04
  1 6848    3671.00000000  3.00000000E-04
  1 6867    3775.00000000  3.00000000E-04
  1 6875    3764.00000000  3.00000000E-04
  1 6886    3785.00000000  3.00000000E-04
  1 6892    3786.00000000  3.00000000E-04
  1 6893    3803.00000000  3.00000000E-04
  1 6894    3810.00000000  3.00000000E-04
  1 6895    3777.00000000  3.00000000E-04
  1 6899    3843.00000000  3.00000000E-04
  1 6943    3771.00000000  3.00000000E-04
  1 6953    3865.00000000  3.00000000E-04
  1 6954    3856.00000000  3.00000000E-04
  1 6956    3831.00000000  3.00000000E-04
  1 6977    3992.00000000  3.00000000E-04
  1 6981    3979.00000000  3.00000000E-04
  1 6992    3854.00000000  3.00000000E-04
  1 7017    3853.00000000  3.00000000E-04
  1 7023    3849.00000000  3.00000000E-04
  1 7057    3730.00000000  3.00000000E-04
  1 7059    3740.00000000  3.00000000E-04
  1 7060    3740.00000000  3.00000000E-04
  1 7061    3747.00000000  3.00000000E-04
  1 7065    3734.00000000  3.00000000E-04
  1 7066    3725.00000000  3.00000000E-04
  1 7077    3716.00000000  3.00000000E-04
  1 7078    3726.00000000  3.00000000E-04
  1 7079    3715.00000000  3.00000000E-04
  1 7080    3740.00000000  3.00000000E-04
  1 7087    3729.00000000  3.00000000E-04
  1 7088    3734.00000000  3.00000000E-04
  1 7090    3731.00000000  3.00000000E-04
  1 7091    3723.00000000  3.00000000E-04
  1 7092    3713.00000000  3.00000000E-04
  1 7093    3728.00000000  3.00000000E-04
  1 7102    3724.00000000  3.00000000E-04
  1 7103    3729.00000000  3.00000000E-04
  1 7117    3731.00000000  3.00000000E-04
  1 7143    3887.00000000  3.00000000E-04
  1 7144    3963.00000000  3.00000000E-04
  1 7147    3957.00000000  3.00000000E-04
  1 7156    3816.00000000  3.00000000E-04
  1 7159    3840.00000000  3.00000000E-04
  1 7175    3644.00000000  3.00000000E-04
  1 7177    3645.00000000  3.00000000E-04
  1 7181    3668.00000000  3.00000000E-04
  1 7182    3669.00000000  3.00000000E-04
  1 7184    3712.00000000  3.00000000E-04
  1 7194    3711.00000000  3.00000000E-04
  1 7224    3693.00000000  3.00000000E-04
  1 7225    3722.00000000  3.00000000E-04
  1 7228    3685.00000000  3.00000000E-04
  1 7230    3741.00000000  3.00000000E-04
  1 7234    3729.00000000  3.00000000E-04
  1 7253    3979.00000000  3.00000000E-04
  1 7259    3977.00000000  3.00000000E-04
  1 7261    3978.00000000  3.00000000E-04
  1 7263    3980.00000000  3.00000000E-04
  1 7266    3979.00000000  3.00000000E-04
  1 7281    4066.00000000  3.00000000E-04
  1 7294    4143.00000000  3.00000000E-04
  1 7296    4124.00000000  3.00000000E-04
  1 7297    4130.00000000  3.00000000E-04
  1 7300    4156.00000000  3.00000000E-04
  1 7310    4076.00000000  3.00000000E-04
  1 7311    4077.00000000  3.00000000E-04
  1 7312    4074.00000000  3.00000000E-04
  1 7318    4203.00000000  3.00000000E-04
  1 7319    4198.00000000  3.00000000E-04
  1 7320    4185.00000000  3.00000000E-04
  1 7327    4176.00000000  3.00000000E-04
  1 7350    4207.00000000  3.00000000E-04
  1 7352    4191.00000000  3.00000000E-04
  1 7353    4210.00000000  3.00000000E-04
  1 7356    4202.00000000  3.00000000E-04