# File generated by Flopy version 3.3.2 on 01/05/2021 at 17:46:50.
BEGIN griddata
  strt
    CONSTANT    4837.00000000
END griddata

